WARNING: The current SST-1994m model is inconsistent with literature. We recommend using the SST-2003m model.
In SU2 v8 the 2003m model will become default, and the inconsistency will be fixed.

-------------------------------------------------------------------------
|    ___ _   _ ___                                                      |
|   / __| | | |_  )   Release 7.4.0 "Blackbird"                         |
|   \__ \ |_| |/ /                                                      |
|   |___/\___//___|   Suite (Computational Fluid Dynamics Code)         |
|                                                                       |
-------------------------------------------------------------------------
| SU2 Project Website: https://su2code.github.io                        |
|                                                                       |
| The SU2 Project is maintained by the SU2 Foundation                   |
| (http://su2foundation.org)                                            |
-------------------------------------------------------------------------
| Copyright 2012-2022, SU2 Contributors                                 |
|                                                                       |
| SU2 is free software; you can redistribute it and/or                  |
| modify it under the terms of the GNU Lesser General Public            |
| License as published by the Free Software Foundation; either          |
| version 2.1 of the License, or (at your option) any later version.    |
|                                                                       |
| SU2 is distributed in the hope that it will be useful,                |
| but WITHOUT ANY WARRANTY; without even the implied warranty of        |
| MERCHANTABILITY or FITNESS FOR A PARTICULAR PURPOSE. See the GNU      |
| Lesser General Public License for more details.                       |
|                                                                       |
| You should have received a copy of the GNU Lesser General Public      |
| License along with SU2. If not, see <http://www.gnu.org/licenses/>.   |
-------------------------------------------------------------------------
WARNING: The current SST-1994m model is inconsistent with literature. We recommend using the SST-2003m model.
In SU2 v8 the 2003m model will become default, and the inconsistency will be fixed.

Parsing config file for zone 0
WARNING: The current SST-1994m model is inconsistent with literature. We recommend using the SST-2003m model.
In SU2 v8 the 2003m model will become default, and the inconsistency will be fixed.

----------------- Physical Case Definition ( Zone 0 ) -------------------
Compressible RANS equations.
Turbulence model: Menter's k-omega SST-1994m with no production modification.
Hybrid RANS/LES: No Hybrid RANS/LES
Mach number: 0.25.
Angle of attack (AoA): 15 deg, and angle of sideslip (AoS): 0 deg.
Reynolds number: 1.52602e+07. Reference length 2.62.
Reading and writing binary SU2 native restart files.
Read flow solution from: solution_flow.
Non-Dimensional simulation (V=Mach, Rho=1.0, T=1.0 at the farfield).
The reference area is 2.62 m^2.
The semi-span will be computed using the max y(3D) value.
The reference length is 2.62 m.
Reference origin for moment evaluation is (0, 0, 0).
Surface(s) where the force coefficients are evaluated: wall.

Surface(s) plotted in the output file: wall.
Input mesh file name: su2meshEx.su2

--------------- Space Numerical Integration ( Zone 0 ) ------------------
Roe (with entropy fix = 1e-05) solver for the flow inviscid terms.
Standard Roe without low-dissipation function.
Second order integration in space, with slope limiter.
Van Albada slope-limiting method implemented by edges.
Scalar upwind solver for the turbulence model.
First order integration in space.
Average of gradients with correction (viscous flow terms).
Average of gradients with correction (viscous turbulence terms).
Gradient for upwind reconstruction: Green-Gauss.
Gradient for viscous and source terms: Green-Gauss.

--------------- Time Numerical Integration  ( Zone 0 ) ------------------
Local time stepping (steady state simulation).
Euler implicit method for the flow equations.
FGMRES is used for solving the linear system.
Using a ILU(0) preconditioning.
Convergence criteria of the linear solver: 0.2.
Max number of linear iterations: 4.
CFL adaptation. Factor down: 0.1, factor up: 1.2,
                lower limit: 25, upper limit: 1000,
                acceptable linear residual: 0.001.
Courant-Friedrichs-Lewy number:       25
Euler implicit time integration for the turbulence model.

------------------ Convergence Criteria  ( Zone 0 ) ---------------------
Maximum number of solver subiterations: 25000.
Begin convergence monitoring at iteration 10.
Residual minimum value: 1e-11.5.
Cauchy series min. value: 5e-07.
Number of Cauchy elements: 500.
Begin windowed time average at iteration 0.

-------------------- Output Information ( Zone 0 ) ----------------------
File writing frequency: 
+------------------------------------+
|                     File| Frequency|
+------------------------------------+
|                  RESTART|       100|
|                 PARAVIEW|       100|
|         SURFACE_PARAVIEW|       100|
+------------------------------------+
Writing the convergence history file every 1 inner iterations.
Writing the screen convergence history every 25 inner iterations.
The tabular file format is CSV (.csv).
Convergence history file name: history.
Forces breakdown file name: forces_breakdown.dat.
Surface file name: surface.
Volume file name: vol_solution.
Restart file name: restart.dat.

------------- Config File Boundary Information ( Zone 0 ) ---------------
+-----------------------------------------------------------------------+
|                        Marker Type|                        Marker Name|
+-----------------------------------------------------------------------+
|                          Far-field|                          far-field|
+-----------------------------------------------------------------------+
|                     Heat flux wall|                               wall|
+-----------------------------------------------------------------------+

-------------------- Output Preprocessing ( Zone 0 ) --------------------

WARNING: SURFACE_PRESSURE_DROP can only be computed for at least 2 surfaces (outlet, inlet, ...)

  Info: Ignoring the following screen output fields:
  RMS_NU_TILDE
Screen output fields: INNER_ITER, RMS_DENSITY, RMS_MOMENTUM-X, RMS_MOMENTUM-Y, RMS_ENERGY, DRAG, LIFT, MOMENT_Z, LINSOL_RESIDUAL
History output group(s): ITER, RMS_RES, AERO_COEFF
Convergence field(s): LIFT
Warning: No (valid) fields chosen for time convergence monitoring. Time convergence monitoring inactive.
Volume output fields: COORDINATES, SOLUTION, PRIMITIVE

------------------- Geometry Preprocessing ( Zone 0 ) -------------------
Two dimensional problem.
66015 grid points before partitioning.
65610 volume elements before partitioning.
2 surface markers.
405 boundary elements in index 0 (Marker = far-field).
405 boundary elements in index 1 (Marker = wall).
Executing the partitioning functions.
Building the graph adjacency structure.
Calling ParMETIS... graph partitioning complete (888 edge cuts).
Distributing ParMETIS coloring.
Rebalancing vertices.
Rebalancing volume element connectivity.
Rebalancing markers and surface elements.
67791 vertices including ghost points. 
66494 interior elements including halo cells. 
66494 quadrilaterals.
Establishing MPI communication patterns.
Setting point connectivity.
Renumbering points (Reverse Cuthill McKee Ordering).
Recomputing point connectivity.
Setting element connectivity.
Checking the numerical grid orientation.
All volume elements are correctly orientend.
All surface elements are correctly orientend.
Identifying edges and vertices.
Setting the control volume structure.
Area of the computational grid: 177681.
Searching for the closest normal neighbors to the surfaces.
Storing a mapping from global to local point index.
Compute the surface curvature.
Max K: 1084.38. Mean K: 3.59037. Standard deviation K: 49.7608.
Checking for periodicity.
Computing mesh quality statistics for the dual control volumes.
+--------------------------------------------------------------+
|           Mesh Quality Metric|        Minimum|        Maximum|
+--------------------------------------------------------------+
|    Orthogonality Angle (deg.)|         82.757|             90|
|     CV Face Area Aspect Ratio|        1.00372|        11629.9|
|           CV Sub-Volume Ratio|              1|        2.23945|
+--------------------------------------------------------------+
Finding max control volume width.
Communicating number of neighbors.
Wetted area = 5.32649 m.
Area projection in the x-plane = 0.29702 m, y-plane = 2.61984 m.
Max. coordinate in the x-direction = 2.62 m, y-direction = 0.165086 m.
Min. coordinate in the x-direction = 0 m, y-direction = -0.119236 m.
Computing wall distances.

-------------------- Solver Preprocessing ( Zone 0 ) --------------------
Viscous flow: Computing pressure using the ideal gas law
based on the free-stream temperature and a density computed
from the Reynolds number.
Force coefficients computed using free-stream values.

-- Models:
+------------------------------------------------------------------------------+
|          Viscosity Model|        Conductivity Model|              Fluid Model|
+------------------------------------------------------------------------------+
|               SUTHERLAND|          CONSTANT_PRANDTL|             STANDARD_AIR|
+------------------------------------------------------------------------------+
-- Fluid properties:
+------------------------------------------------------------------------------+
|                  Name|    Dim. value|    Ref. value|      Unit|Non-dim. value|
+------------------------------------------------------------------------------+
|        Ref. Viscosity|     1.716e-05|       416.883|   N.s/m^2|   4.11626e-08|
|      Sutherland Temp.|        273.15|        288.16|         K|      0.947911|
|     Sutherland Const.|         110.4|        288.16|         K|       0.38312|
+------------------------------------------------------------------------------+
|        Prandtl (Lam.)|             -|             -|         -|          0.72|
|       Prandtl (Turb.)|             -|             -|         -|           0.9|
+------------------------------------------------------------------------------+
|          Gas Constant|       287.058|       401.881|  N.m/kg.K|      0.714286|
|      Spec. Heat Ratio|             -|             -|         -|           1.4|
+------------------------------------------------------------------------------+
-- Initial and free-stream conditions:
+------------------------------------------------------------------------------+
|                  Name|    Dim. value|    Ref. value|      Unit|Non-dim. value|
+------------------------------------------------------------------------------+
|       Static Pressure|        101333|        141867|        Pa|      0.714286|
|               Density|       1.22504|       1.22504|    kg/m^3|             1|
|           Temperature|        288.16|        288.16|         K|             1|
|          Total Energy|        210443|        115806|   m^2/s^2|        1.8172|
|            Velocity-X|       82.1768|       340.303|       m/s|      0.241481|
|            Velocity-Y|       22.0192|       340.303|       m/s|     0.0647048|
|    Velocity Magnitude|       85.0757|       340.303|       m/s|          0.25|
+------------------------------------------------------------------------------+
|             Viscosity|   1.78935e-05|       416.883|   N.s/m^2|    4.2922e-08|
|          Conductivity|             -|        167537|   W/m^2.K|             -|
|     Turb. Kin. Energy|       27.1421|        115806|   m^2/s^2|   0.000234375|
|     Spec. Dissipation|        185822|       340.303|       1/s|       546.049|
+------------------------------------------------------------------------------+
|           Mach Number|             -|             -|         -|          0.25|
|       Reynolds Number|             -|             -|         -|   1.52602e+07|
+------------------------------------------------------------------------------+
Initialize Jacobian structure (Navier-Stokes). MG level: 0.
Initialize Jacobian structure (SST model).

------------------- Numerics Preprocessing ( Zone 0 ) -------------------

----------------- Integration Preprocessing ( Zone 0 ) ------------------

------------------- Iteration Preprocessing ( Zone 0 ) ------------------
Euler/Navier-Stokes/RANS fluid iteration.

------------------------------ Begin Solver -----------------------------

Simulation Run using the Single-zone Driver
WARNING: SU2 was not compiled for an AVX-capable architecture.
+--------------------------------------------------------------------------------------------------------------------+
|  Inner_Iter|    rms[Rho]|   rms[RhoU]|   rms[RhoV]|   rms[RhoE]|          CD|          CL|         CMz|   LinSolRes|
+--------------------------------------------------------------------------------------------------------------------+
|           0|   -3.344388|   -3.610085|   -3.371257|   -2.938347|    0.074222|    1.475100|    0.403811|   -0.836983|
|          25|   -5.309450|   -4.768172|   -4.719135|   -4.889989|    0.083658|    1.526757|    0.429349|   -0.813694|
|          50|   -5.721284|   -4.863401|   -5.033079|   -5.207627|    0.075515|    1.550865|    0.426728|   -0.956045|
|          75|   -5.998763|   -5.016338|   -5.403762|   -5.436422|    0.062854|    1.632674|    0.443520|   -0.696429|
|         100|   -6.297066|   -5.213791|   -5.632515|   -5.654473|    0.046585|    1.572910|    0.418896|   -0.936047|
+-----------------------------------------------------------------------+
|        File Writing Summary       |              Filename             |
+-----------------------------------------------------------------------+
|SU2 binary restart                 |restart.dat                        |
|Paraview                           |vol_solution.vtu                   |
|Paraview surface                   |surface.vtu                        |
+-----------------------------------------------------------------------+
+--------------------------------------------------------------------------------------------------------------------+
|  Inner_Iter|    rms[Rho]|   rms[RhoU]|   rms[RhoV]|   rms[RhoE]|          CD|          CL|         CMz|   LinSolRes|
+--------------------------------------------------------------------------------------------------------------------+
|         125|   -6.380275|   -5.412663|   -5.878255|   -5.876869|    0.064027|    1.549767|    0.417655|   -1.087891|
|         150|   -6.655410|   -5.748346|   -6.199291|   -6.146109|    0.073021|    1.564566|    0.424746|   -0.644199|
|         175|   -6.875137|   -5.976362|   -6.384474|   -6.382375|    0.076357|    1.570976|    0.426110|   -1.140248|
|         200|   -7.046721|   -6.243672|   -6.705931|   -6.596906|    0.081722|    1.564872|    0.422224|   -0.623846|
+-----------------------------------------------------------------------+
|        File Writing Summary       |              Filename             |
+-----------------------------------------------------------------------+
|SU2 binary restart                 |restart.dat                        |
|Paraview                           |vol_solution.vtu                   |
|Paraview surface                   |surface.vtu                        |
+-----------------------------------------------------------------------+
+--------------------------------------------------------------------------------------------------------------------+
|  Inner_Iter|    rms[Rho]|   rms[RhoU]|   rms[RhoV]|   rms[RhoE]|          CD|          CL|         CMz|   LinSolRes|
+--------------------------------------------------------------------------------------------------------------------+
|         225|   -6.986352|   -6.403669|   -6.828209|   -6.597977|    0.091882|    1.557856|    0.419661|   -0.639280|
|         250|   -6.815414|   -6.331992|   -6.805100|   -6.452440|    0.110541|    1.554853|    0.418387|   -0.696550|
|         275|   -6.686359|   -6.221602|   -6.704561|   -6.332259|    0.125350|    1.558015|    0.418631|   -0.988082|
|         300|   -6.609603|   -6.142628|   -6.629642|   -6.258629|    0.136584|    1.557415|    0.417035|   -1.014656|
+-----------------------------------------------------------------------+
|        File Writing Summary       |              Filename             |
+-----------------------------------------------------------------------+
|SU2 binary restart                 |restart.dat                        |
|Paraview                           |vol_solution.vtu                   |
|Paraview surface                   |surface.vtu                        |
+-----------------------------------------------------------------------+
+--------------------------------------------------------------------------------------------------------------------+
|  Inner_Iter|    rms[Rho]|   rms[RhoU]|   rms[RhoV]|   rms[RhoE]|          CD|          CL|         CMz|   LinSolRes|
+--------------------------------------------------------------------------------------------------------------------+
|         325|   -6.401933|   -5.963314|   -6.364695|   -6.047895|    0.164448|    1.555818|    0.413254|   -0.647948|
|         350|   -6.291950|   -5.837778|   -6.191331|   -5.951846|    0.192327|    1.568317|    0.413001|   -0.861653|
|         375|   -6.196770|   -5.756856|   -6.042952|   -5.857208|    0.229209|    1.616489|    0.442909|   -0.673883|
|         400|   -6.101465|   -5.660785|   -5.862178|   -5.769268|    0.297386|    1.753898|    0.554044|   -0.676046|
+-----------------------------------------------------------------------+
|        File Writing Summary       |              Filename             |
+-----------------------------------------------------------------------+
|SU2 binary restart                 |restart.dat                        |
|Paraview                           |vol_solution.vtu                   |
|Paraview surface                   |surface.vtu                        |
+-----------------------------------------------------------------------+
+--------------------------------------------------------------------------------------------------------------------+
|  Inner_Iter|    rms[Rho]|   rms[RhoU]|   rms[RhoV]|   rms[RhoE]|          CD|          CL|         CMz|   LinSolRes|
+--------------------------------------------------------------------------------------------------------------------+
|         425|   -6.008901|   -5.545707|   -5.711185|   -5.685695|    0.391935|    1.942090|    0.736896|   -0.660238|
|         450|   -5.936558|   -5.459057|   -5.610195|   -5.618193|    0.496618|    2.131886|    0.948843|   -0.631142|
|         475|   -5.966355|   -5.387323|   -5.564062|   -5.659775|    0.552534|    2.185313|    1.058978|   -0.846613|
|         500|   -5.887844|   -5.222072|   -5.432296|   -5.524137|    0.510049|    1.873453|    0.937690|   -0.653903|
+-----------------------------------------------------------------------+
|        File Writing Summary       |              Filename             |
+-----------------------------------------------------------------------+
|SU2 binary restart                 |restart.dat                        |
|Paraview                           |vol_solution.vtu                   |
|Paraview surface                   |surface.vtu                        |
+-----------------------------------------------------------------------+
+--------------------------------------------------------------------------------------------------------------------+
|  Inner_Iter|    rms[Rho]|   rms[RhoU]|   rms[RhoV]|   rms[RhoE]|          CD|          CL|         CMz|   LinSolRes|
+--------------------------------------------------------------------------------------------------------------------+
|         525|   -5.591371|   -4.878827|   -5.094223|   -5.200871|    0.324952|    0.928666|    0.465581|   -0.662814|
|         550|   -5.239407|   -4.525526|   -4.802874|   -4.824194|    0.125658|    0.036224|    0.026503|   -0.679158|
|         575|   -5.047555|   -4.298447|   -4.568514|   -4.608985|    0.048917|    0.047767|    0.024815|   -0.913735|
|         600|   -4.720402|   -4.174469|   -4.219724|   -4.325981|    0.258183|    0.922995|    0.552896|   -0.780645|
+-----------------------------------------------------------------------+
|        File Writing Summary       |              Filename             |
+-----------------------------------------------------------------------+
|SU2 binary restart                 |restart.dat                        |
|Paraview                           |vol_solution.vtu                   |
|Paraview surface                   |surface.vtu                        |
+-----------------------------------------------------------------------+
+--------------------------------------------------------------------------------------------------------------------+
|  Inner_Iter|    rms[Rho]|   rms[RhoU]|   rms[RhoV]|   rms[RhoE]|          CD|          CL|         CMz|   LinSolRes|
+--------------------------------------------------------------------------------------------------------------------+
|         625|   -4.807131|   -4.175819|   -4.177475|   -4.411167|    0.115491|    0.000231|   -0.020344|   -0.669096|
|         650|   -4.896868|   -4.028320|   -4.145715|   -4.442852|    0.180914|    0.707793|    0.326682|   -0.927519|
|         675|   -4.776638|   -3.890266|   -4.099949|   -4.281147|    0.123591|    0.487493|    0.111786|   -1.006868|
|         700|   -4.605075|   -3.917301|   -4.166186|   -4.140968|    0.063012|    0.206339|    0.025612|   -0.941863|
+-----------------------------------------------------------------------+
|        File Writing Summary       |              Filename             |
+-----------------------------------------------------------------------+
|SU2 binary restart                 |restart.dat                        |
|Paraview                           |vol_solution.vtu                   |
|Paraview surface                   |surface.vtu                        |
+-----------------------------------------------------------------------+
+--------------------------------------------------------------------------------------------------------------------+
|  Inner_Iter|    rms[Rho]|   rms[RhoU]|   rms[RhoV]|   rms[RhoE]|          CD|          CL|         CMz|   LinSolRes|
+--------------------------------------------------------------------------------------------------------------------+
|         725|   -4.923025|   -4.268774|   -4.535795|   -4.520504|    0.314057|    1.081629|    0.545807|   -0.906235|
|         750|   -4.644990|   -4.581456|   -4.649972|   -4.243773|    0.096325|    0.508426|    0.116372|   -1.121547|
|         775|   -5.563730|   -4.828059|   -5.084129|   -5.126244|    0.208645|    0.758354|    0.315269|   -0.732315|
|         800|   -5.552712|   -4.939178|   -5.233914|   -5.127741|    0.222816|    0.908940|    0.340827|   -0.636176|
+-----------------------------------------------------------------------+
|        File Writing Summary       |              Filename             |
+-----------------------------------------------------------------------+
|SU2 binary restart                 |restart.dat                        |
|Paraview                           |vol_solution.vtu                   |
|Paraview surface                   |surface.vtu                        |
+-----------------------------------------------------------------------+
+--------------------------------------------------------------------------------------------------------------------+
|  Inner_Iter|    rms[Rho]|   rms[RhoU]|   rms[RhoV]|   rms[RhoE]|          CD|          CL|         CMz|   LinSolRes|
+--------------------------------------------------------------------------------------------------------------------+
|         825|   -5.993550|   -5.246165|   -5.554906|   -5.545560|    0.265667|    1.018878|    0.452210|   -0.747697|
|         850|   -6.118055|   -5.371735|   -5.658171|   -5.716787|    0.212210|    0.855480|    0.330678|   -0.632099|
|         875|   -5.932796|   -5.269136|   -5.577492|   -5.510203|    0.222979|    0.831010|    0.343575|   -0.672526|
|         900|   -6.097065|   -5.360700|   -5.620955|   -5.706253|    0.214844|    0.802664|    0.335209|   -0.680450|
+-----------------------------------------------------------------------+
|        File Writing Summary       |              Filename             |
+-----------------------------------------------------------------------+
|SU2 binary restart                 |restart.dat                        |
|Paraview                           |vol_solution.vtu                   |
|Paraview surface                   |surface.vtu                        |
+-----------------------------------------------------------------------+
+--------------------------------------------------------------------------------------------------------------------+
|  Inner_Iter|    rms[Rho]|   rms[RhoU]|   rms[RhoV]|   rms[RhoE]|          CD|          CL|         CMz|   LinSolRes|
+--------------------------------------------------------------------------------------------------------------------+
|         925|   -6.125384|   -5.300139|   -5.560192|   -5.717535|    0.194124|    0.677400|    0.281959|   -0.784068|
|         950|   -6.032636|   -5.197491|   -5.467167|   -5.633395|    0.208575|    0.747663|    0.319409|   -0.774969|
|         975|   -5.776685|   -5.134719|   -5.389198|   -5.378484|    0.165105|    0.573006|    0.218040|   -0.647421|
|        1000|   -5.980698|   -5.083637|   -5.394186|   -5.553895|    0.199754|    0.714892|    0.300283|   -0.778577|
+-----------------------------------------------------------------------+
|        File Writing Summary       |              Filename             |
+-----------------------------------------------------------------------+
|SU2 binary restart                 |restart.dat                        |
|Paraview                           |vol_solution.vtu                   |
|Paraview surface                   |surface.vtu                        |
+-----------------------------------------------------------------------+
+--------------------------------------------------------------------------------------------------------------------+
|  Inner_Iter|    rms[Rho]|   rms[RhoU]|   rms[RhoV]|   rms[RhoE]|          CD|          CL|         CMz|   LinSolRes|
+--------------------------------------------------------------------------------------------------------------------+
|        1025|   -5.919630|   -5.075295|   -5.384776|   -5.510333|    0.168333|    0.591070|    0.225501|   -0.741041|
|        1050|   -5.897810|   -5.064072|   -5.381326|   -5.481049|    0.185732|    0.692799|    0.283315|   -0.743206|
|        1075|   -5.966266|   -5.213300|   -5.500426|   -5.571445|    0.181967|    0.659541|    0.259031|   -0.954409|
|        1100|   -6.159611|   -5.441942|   -5.728335|   -5.732419|    0.194157|    0.735547|    0.292727|   -0.656704|
+-----------------------------------------------------------------------+
|        File Writing Summary       |              Filename             |
+-----------------------------------------------------------------------+
|SU2 binary restart                 |restart.dat                        |
|Paraview                           |vol_solution.vtu                   |
|Paraview surface                   |surface.vtu                        |
+-----------------------------------------------------------------------+
+--------------------------------------------------------------------------------------------------------------------+
|  Inner_Iter|    rms[Rho]|   rms[RhoU]|   rms[RhoV]|   rms[RhoE]|          CD|          CL|         CMz|   LinSolRes|
+--------------------------------------------------------------------------------------------------------------------+
|        1125|   -6.451874|   -5.688044|   -5.999883|   -6.077366|    0.204147|    0.795755|    0.320874|   -0.802815|
|        1150|   -6.598248|   -5.738054|   -6.069350|   -6.184043|    0.199402|    0.782057|    0.310540|   -0.826337|
|        1175|   -6.644983|   -5.859560|   -6.171532|   -6.247070|    0.205350|    0.802961|    0.322508|   -0.633893|
|        1200|   -6.856653|   -6.029845|   -6.357817|   -6.462437|    0.205910|    0.808597|    0.325394|   -0.705952|
+-----------------------------------------------------------------------+
|        File Writing Summary       |              Filename             |
+-----------------------------------------------------------------------+
|SU2 binary restart                 |restart.dat                        |
|Paraview                           |vol_solution.vtu                   |
|Paraview surface                   |surface.vtu                        |
+-----------------------------------------------------------------------+
+--------------------------------------------------------------------------------------------------------------------+
|  Inner_Iter|    rms[Rho]|   rms[RhoU]|   rms[RhoV]|   rms[RhoE]|          CD|          CL|         CMz|   LinSolRes|
+--------------------------------------------------------------------------------------------------------------------+
|        1225|   -6.877580|   -6.102704|   -6.383004|   -6.470364|    0.205401|    0.803874|    0.325247|   -0.645699|
|        1250|   -6.980139|   -6.066575|   -6.369776|   -6.558832|    0.200107|    0.775554|    0.313174|   -0.817290|
|        1275|   -6.941067|   -6.114321|   -6.413115|   -6.545846|    0.195525|    0.752582|    0.302245|   -0.626257|
|        1300|   -6.957932|   -6.099419|   -6.406046|   -6.574649|    0.196422|    0.756582|    0.305543|   -0.700751|
+-----------------------------------------------------------------------+
|        File Writing Summary       |              Filename             |
+-----------------------------------------------------------------------+
|SU2 binary restart                 |restart.dat                        |
|Paraview                           |vol_solution.vtu                   |
|Paraview surface                   |surface.vtu                        |
+-----------------------------------------------------------------------+
+--------------------------------------------------------------------------------------------------------------------+
|  Inner_Iter|    rms[Rho]|   rms[RhoU]|   rms[RhoV]|   rms[RhoE]|          CD|          CL|         CMz|   LinSolRes|
+--------------------------------------------------------------------------------------------------------------------+
|        1325|   -6.961775|   -6.119802|   -6.433075|   -6.561396|    0.191859|    0.736736|    0.295478|   -0.743750|
|        1350|   -7.014188|   -6.084691|   -6.422200|   -6.608167|    0.193925|    0.747433|    0.300806|   -0.726116|
|        1375|   -6.957168|   -6.150975|   -6.454945|   -6.566738|    0.190677|    0.735610|    0.294061|   -0.626624|
|        1400|   -6.971191|   -6.132997|   -6.460504|   -6.578428|    0.193375|    0.750007|    0.301156|   -0.733686|
+-----------------------------------------------------------------------+
|        File Writing Summary       |              Filename             |
+-----------------------------------------------------------------------+
|SU2 binary restart                 |restart.dat                        |
|Paraview                           |vol_solution.vtu                   |
|Paraview surface                   |surface.vtu                        |
+-----------------------------------------------------------------------+
+--------------------------------------------------------------------------------------------------------------------+
|  Inner_Iter|    rms[Rho]|   rms[RhoU]|   rms[RhoV]|   rms[RhoE]|          CD|          CL|         CMz|   LinSolRes|
+--------------------------------------------------------------------------------------------------------------------+
|        1425|   -6.992268|   -6.189229|   -6.493135|   -6.592032|    0.191327|    0.742921|    0.296305|   -1.058185|
|        1450|   -7.127199|   -6.254573|   -6.588253|   -6.736401|    0.193715|    0.758095|    0.303379|   -0.917231|
|        1475|   -7.298120|   -6.437412|   -6.768759|   -6.893917|    0.193348|    0.761126|    0.303833|   -0.827174|
|        1500|   -7.348523|   -6.553105|   -6.850219|   -6.975341|    0.193823|    0.766077|    0.305353|   -0.697816|
+-----------------------------------------------------------------------+
|        File Writing Summary       |              Filename             |
+-----------------------------------------------------------------------+
|SU2 binary restart                 |restart.dat                        |
|Paraview                           |vol_solution.vtu                   |
|Paraview surface                   |surface.vtu                        |
+-----------------------------------------------------------------------+
+--------------------------------------------------------------------------------------------------------------------+
|  Inner_Iter|    rms[Rho]|   rms[RhoU]|   rms[RhoV]|   rms[RhoE]|          CD|          CL|         CMz|   LinSolRes|
+--------------------------------------------------------------------------------------------------------------------+
|        1525|   -7.435864|   -6.609445|   -6.928798|   -7.051195|    0.194972|    0.775011|    0.309216|   -0.607083|
|        1550|   -7.456383|   -6.592222|   -6.932166|   -7.032992|    0.194487|    0.774832|    0.309136|   -0.640530|
|        1575|   -7.492032|   -6.673535|   -7.005255|   -7.091973|    0.193911|    0.774168|    0.308407|   -0.710096|
|        1600|   -7.569954|   -6.753564|   -7.038235|   -7.187638|    0.194098|    0.776772|    0.309827|   -0.587537|
+-----------------------------------------------------------------------+
|        File Writing Summary       |              Filename             |
+-----------------------------------------------------------------------+
|SU2 binary restart                 |restart.dat                        |
|Paraview                           |vol_solution.vtu                   |
|Paraview surface                   |surface.vtu                        |
+-----------------------------------------------------------------------+
+--------------------------------------------------------------------------------------------------------------------+
|  Inner_Iter|    rms[Rho]|   rms[RhoU]|   rms[RhoV]|   rms[RhoE]|          CD|          CL|         CMz|   LinSolRes|
+--------------------------------------------------------------------------------------------------------------------+
|        1625|   -7.538248|   -6.685139|   -6.984926|   -7.126911|    0.192679|    0.771648|    0.307196|   -0.746532|
|        1650|   -7.518685|   -6.686468|   -6.971686|   -7.139381|    0.192943|    0.773934|    0.308379|   -0.701336|
|        1675|   -7.481235|   -6.628154|   -6.932877|   -7.086541|    0.191645|    0.768889|    0.305686|   -0.776865|
|        1700|   -7.449327|   -6.571682|   -6.875420|   -7.035851|    0.191932|    0.771323|    0.307195|   -0.782334|
+-----------------------------------------------------------------------+
|        File Writing Summary       |              Filename             |
+-----------------------------------------------------------------------+
|SU2 binary restart                 |restart.dat                        |
|Paraview                           |vol_solution.vtu                   |
|Paraview surface                   |surface.vtu                        |
+-----------------------------------------------------------------------+
+--------------------------------------------------------------------------------------------------------------------+
|  Inner_Iter|    rms[Rho]|   rms[RhoU]|   rms[RhoV]|   rms[RhoE]|          CD|          CL|         CMz|   LinSolRes|
+--------------------------------------------------------------------------------------------------------------------+
|        1725|   -7.426315|   -6.533005|   -6.850967|   -7.014528|    0.191496|    0.770253|    0.306118|   -0.772974|
|        1750|   -7.399463|   -6.589974|   -6.878161|   -6.997572|    0.191212|    0.771458|    0.306808|   -0.746786|
|        1775|   -7.528015|   -6.634513|   -6.954929|   -7.132023|    0.189853|    0.767629|    0.304335|   -0.804840|
|        1800|   -7.553477|   -6.657796|   -6.997556|   -7.150715|    0.190419|    0.772276|    0.306315|   -0.807479|
+-----------------------------------------------------------------------+
|        File Writing Summary       |              Filename             |
+-----------------------------------------------------------------------+
|SU2 binary restart                 |restart.dat                        |
|Paraview                           |vol_solution.vtu                   |
|Paraview surface                   |surface.vtu                        |
+-----------------------------------------------------------------------+
+--------------------------------------------------------------------------------------------------------------------+
|  Inner_Iter|    rms[Rho]|   rms[RhoU]|   rms[RhoV]|   rms[RhoE]|          CD|          CL|         CMz|   LinSolRes|
+--------------------------------------------------------------------------------------------------------------------+
|        1825|   -7.666327|   -6.779486|   -7.111219|   -7.248531|    0.189835|    0.772260|    0.306085|   -0.823548|
|        1850|   -7.651535|   -6.862288|   -7.157807|   -7.244074|    0.189567|    0.773492|    0.306027|   -1.003739|
|        1875|   -7.713457|   -6.908840|   -7.219384|   -7.317838|    0.189806|    0.777319|    0.307655|   -0.963274|
|        1900|   -7.812976|   -6.959137|   -7.296388|   -7.409756|    0.189085|    0.777053|    0.307043|   -0.655649|
+-----------------------------------------------------------------------+
|        File Writing Summary       |              Filename             |
+-----------------------------------------------------------------------+
|SU2 binary restart                 |restart.dat                        |
|Paraview                           |vol_solution.vtu                   |
|Paraview surface                   |surface.vtu                        |
+-----------------------------------------------------------------------+
+--------------------------------------------------------------------------------------------------------------------+
|  Inner_Iter|    rms[Rho]|   rms[RhoU]|   rms[RhoV]|   rms[RhoE]|          CD|          CL|         CMz|   LinSolRes|
+--------------------------------------------------------------------------------------------------------------------+
|        1925|   -7.842977|   -7.012494|   -7.334697|   -7.440291|    0.189042|    0.779224|    0.307668|   -0.621480|
|        1950|   -7.826401|   -7.032018|   -7.319580|   -7.431254|    0.188947|    0.781221|    0.308504|   -0.752570|
|        1975|   -7.860180|   -7.011508|   -7.311491|   -7.479039|    0.188361|    0.780728|    0.307881|   -0.600746|
|        2000|   -7.861422|   -7.012717|   -7.301307|   -7.471169|    0.188336|    0.782700|    0.308603|   -0.791095|
+-----------------------------------------------------------------------+
|        File Writing Summary       |              Filename             |
+-----------------------------------------------------------------------+
|SU2 binary restart                 |restart.dat                        |
|Paraview                           |vol_solution.vtu                   |
|Paraview surface                   |surface.vtu                        |
+-----------------------------------------------------------------------+
+--------------------------------------------------------------------------------------------------------------------+
|  Inner_Iter|    rms[Rho]|   rms[RhoU]|   rms[RhoV]|   rms[RhoE]|          CD|          CL|         CMz|   LinSolRes|
+--------------------------------------------------------------------------------------------------------------------+
|        2025|   -7.832721|   -6.976323|   -7.295238|   -7.437377|    0.187786|    0.781693|    0.307903|   -0.767713|
|        2050|   -7.865230|   -6.970028|   -7.301554|   -7.444451|    0.187695|    0.782919|    0.308333|   -0.788875|
|        2075|   -7.870372|   -6.989656|   -7.345637|   -7.460793|    0.187368|    0.782837|    0.307970|   -0.756927|
|        2100|   -7.979103|   -7.055942|   -7.406151|   -7.537220|    0.187077|    0.783364|    0.308122|   -0.737957|
+-----------------------------------------------------------------------+
|        File Writing Summary       |              Filename             |
+-----------------------------------------------------------------------+
|SU2 binary restart                 |restart.dat                        |
|Paraview                           |vol_solution.vtu                   |
|Paraview surface                   |surface.vtu                        |
+-----------------------------------------------------------------------+
+--------------------------------------------------------------------------------------------------------------------+
|  Inner_Iter|    rms[Rho]|   rms[RhoU]|   rms[RhoV]|   rms[RhoE]|          CD|          CL|         CMz|   LinSolRes|
+--------------------------------------------------------------------------------------------------------------------+
|        2125|   -8.036301|   -7.250605|   -7.588641|   -7.636873|    0.186788|    0.784169|    0.308163|   -1.114551|
|        2150|   -8.127255|   -7.332862|   -7.663674|   -7.739433|    0.186470|    0.785656|    0.308492|   -0.658747|
|        2175|   -8.222393|   -7.361974|   -7.731259|   -7.877196|    0.185980|    0.785905|    0.308257|   -0.985736|
|        2200|   -8.233092|   -7.334943|   -7.704922|   -7.856886|    0.185709|    0.787364|    0.308511|   -0.888375|
+-----------------------------------------------------------------------+
|        File Writing Summary       |              Filename             |
+-----------------------------------------------------------------------+
|SU2 binary restart                 |restart.dat                        |
|Paraview                           |vol_solution.vtu                   |
|Paraview surface                   |surface.vtu                        |
+-----------------------------------------------------------------------+
+--------------------------------------------------------------------------------------------------------------------+
|  Inner_Iter|    rms[Rho]|   rms[RhoU]|   rms[RhoV]|   rms[RhoE]|          CD|          CL|         CMz|   LinSolRes|
+--------------------------------------------------------------------------------------------------------------------+
|        2225|   -8.215034|   -7.320775|   -7.692635|   -7.835187|    0.185411|    0.788635|    0.308835|   -0.816351|
|        2250|   -8.161660|   -7.301150|   -7.683853|   -7.768734|    0.185267|    0.789475|    0.309001|   -0.760179|
|        2275|   -8.159876|   -7.313544|   -7.717259|   -7.794676|    0.184993|    0.789894|    0.308989|   -0.731700|
|        2300|   -8.163209|   -7.350206|   -7.712922|   -7.791533|    0.184854|    0.791086|    0.309275|   -0.782325|
+-----------------------------------------------------------------------+
|        File Writing Summary       |              Filename             |
+-----------------------------------------------------------------------+
|SU2 binary restart                 |restart.dat                        |
|Paraview                           |vol_solution.vtu                   |
|Paraview surface                   |surface.vtu                        |
+-----------------------------------------------------------------------+
+--------------------------------------------------------------------------------------------------------------------+
|  Inner_Iter|    rms[Rho]|   rms[RhoU]|   rms[RhoV]|   rms[RhoE]|          CD|          CL|         CMz|   LinSolRes|
+--------------------------------------------------------------------------------------------------------------------+
|        2325|   -8.156594|   -7.350054|   -7.742810|   -7.777713|    0.184539|    0.791376|    0.309164|   -0.757702|
|        2350|   -8.219511|   -7.379950|   -7.786207|   -7.865514|    0.184359|    0.792256|    0.309369|   -0.751574|
|        2375|   -8.212269|   -7.374414|   -7.776756|   -7.835455|    0.184141|    0.792984|    0.309406|   -0.749107|
|        2400|   -8.231593|   -7.367376|   -7.782349|   -7.839777|    0.183755|    0.793918|    0.309463|   -0.600375|
+-----------------------------------------------------------------------+
|        File Writing Summary       |              Filename             |
+-----------------------------------------------------------------------+
|SU2 binary restart                 |restart.dat                        |
|Paraview                           |vol_solution.vtu                   |
|Paraview surface                   |surface.vtu                        |
+-----------------------------------------------------------------------+
+--------------------------------------------------------------------------------------------------------------------+
|  Inner_Iter|    rms[Rho]|   rms[RhoU]|   rms[RhoV]|   rms[RhoE]|          CD|          CL|         CMz|   LinSolRes|
+--------------------------------------------------------------------------------------------------------------------+
|        2425|   -8.239370|   -7.393965|   -7.830641|   -7.880957|    0.183460|    0.795433|    0.309834|   -0.629985|
|        2450|   -8.239597|   -7.394085|   -7.771923|   -7.880625|    0.183142|    0.796874|    0.310086|   -0.672300|
|        2475|   -8.218753|   -7.380436|   -7.761622|   -7.858909|    0.182798|    0.797435|    0.310068|   -0.801623|
|        2500|   -8.196765|   -7.352530|   -7.742374|   -7.819206|    0.182628|    0.798442|    0.310316|   -0.757038|
+-----------------------------------------------------------------------+
|        File Writing Summary       |              Filename             |
+-----------------------------------------------------------------------+
|SU2 binary restart                 |restart.dat                        |
|Paraview                           |vol_solution.vtu                   |
|Paraview surface                   |surface.vtu                        |
+-----------------------------------------------------------------------+
+--------------------------------------------------------------------------------------------------------------------+
|  Inner_Iter|    rms[Rho]|   rms[RhoU]|   rms[RhoV]|   rms[RhoE]|          CD|          CL|         CMz|   LinSolRes|
+--------------------------------------------------------------------------------------------------------------------+
|        2525|   -8.195532|   -7.350775|   -7.760825|   -7.823601|    0.182316|    0.798865|    0.310195|   -0.711560|
|        2550|   -8.255086|   -7.389489|   -7.814823|   -7.876076|    0.181986|    0.800136|    0.310404|   -0.804878|
|        2575|   -8.249494|   -7.394167|   -7.845972|   -7.881808|    0.181642|    0.800622|    0.310319|   -0.763855|
|        2600|   -8.245982|   -7.384709|   -7.809316|   -7.874844|    0.181452|    0.801698|    0.310613|   -0.675804|
+-----------------------------------------------------------------------+
|        File Writing Summary       |              Filename             |
+-----------------------------------------------------------------------+
|SU2 binary restart                 |restart.dat                        |
|Paraview                           |vol_solution.vtu                   |
|Paraview surface                   |surface.vtu                        |
+-----------------------------------------------------------------------+
+--------------------------------------------------------------------------------------------------------------------+
|  Inner_Iter|    rms[Rho]|   rms[RhoU]|   rms[RhoV]|   rms[RhoE]|          CD|          CL|         CMz|   LinSolRes|
+--------------------------------------------------------------------------------------------------------------------+
|        2625|   -8.264660|   -7.388609|   -7.804794|   -7.909332|    0.180999|    0.803068|    0.310725|   -0.772828|
|        2650|   -8.212831|   -7.380146|   -7.781160|   -7.845332|    0.180737|    0.804302|    0.310986|   -0.775488|
|        2675|   -8.215664|   -7.384866|   -7.809925|   -7.856095|    0.180407|    0.804805|    0.310900|   -0.726277|
|        2700|   -8.239983|   -7.398812|   -7.841692|   -7.876464|    0.180136|    0.805530|    0.310957|   -0.744262|
+-----------------------------------------------------------------------+
|        File Writing Summary       |              Filename             |
+-----------------------------------------------------------------------+
|SU2 binary restart                 |restart.dat                        |
|Paraview                           |vol_solution.vtu                   |
|Paraview surface                   |surface.vtu                        |
+-----------------------------------------------------------------------+
+--------------------------------------------------------------------------------------------------------------------+
|  Inner_Iter|    rms[Rho]|   rms[RhoU]|   rms[RhoV]|   rms[RhoE]|          CD|          CL|         CMz|   LinSolRes|
+--------------------------------------------------------------------------------------------------------------------+
|        2725|   -8.230065|   -7.399350|   -7.848213|   -7.864964|    0.179861|    0.806298|    0.310992|   -0.763270|
|        2750|   -8.278445|   -7.381469|   -7.839768|   -7.919344|    0.179576|    0.807065|    0.311097|   -0.671357|
|        2775|   -8.240558|   -7.357758|   -7.762290|   -7.877734|    0.179163|    0.808813|    0.311350|   -0.786331|
|        2800|   -8.187087|   -7.341904|   -7.729643|   -7.815418|    0.178750|    0.810074|    0.311505|   -0.793882|
+-----------------------------------------------------------------------+
|        File Writing Summary       |              Filename             |
+-----------------------------------------------------------------------+
|SU2 binary restart                 |restart.dat                        |
|Paraview                           |vol_solution.vtu                   |
|Paraview surface                   |surface.vtu                        |
+-----------------------------------------------------------------------+
+--------------------------------------------------------------------------------------------------------------------+
|  Inner_Iter|    rms[Rho]|   rms[RhoU]|   rms[RhoV]|   rms[RhoE]|          CD|          CL|         CMz|   LinSolRes|
+--------------------------------------------------------------------------------------------------------------------+
|        2825|   -8.162824|   -7.321116|   -7.729689|   -7.783135|    0.178465|    0.810781|    0.311516|   -0.740227|
|        2850|   -8.248013|   -7.333814|   -7.778805|   -7.885324|    0.178138|    0.811469|    0.311541|   -0.765445|
|        2875|   -8.191985|   -7.367865|   -7.804357|   -7.833585|    0.177902|    0.812936|    0.311836|   -0.778321|
|        2900|   -8.204337|   -7.363202|   -7.822235|   -7.849116|    0.177554|    0.813405|    0.311721|   -0.750339|
+-----------------------------------------------------------------------+
|        File Writing Summary       |              Filename             |
+-----------------------------------------------------------------------+
|SU2 binary restart                 |restart.dat                        |
|Paraview                           |vol_solution.vtu                   |
|Paraview surface                   |surface.vtu                        |
+-----------------------------------------------------------------------+
+--------------------------------------------------------------------------------------------------------------------+
|  Inner_Iter|    rms[Rho]|   rms[RhoU]|   rms[RhoV]|   rms[RhoE]|          CD|          CL|         CMz|   LinSolRes|
+--------------------------------------------------------------------------------------------------------------------+
|        2925|   -8.248631|   -7.374593|   -7.819051|   -7.902615|    0.177352|    0.814562|    0.311993|   -0.794431|
|        2950|   -8.195771|   -7.367438|   -7.816463|   -7.842098|    0.177065|    0.815640|    0.312132|   -0.747176|
|        2975|   -8.236171|   -7.365085|   -7.811380|   -7.887222|    0.176716|    0.816289|    0.312072|   -0.884795|
|        3000|   -8.203656|   -7.359089|   -7.805396|   -7.846727|    0.176321|    0.817661|    0.312248|   -0.675634|
+-----------------------------------------------------------------------+
|        File Writing Summary       |              Filename             |
+-----------------------------------------------------------------------+
|SU2 binary restart                 |restart.dat                        |
|Paraview                           |vol_solution.vtu                   |
|Paraview surface                   |surface.vtu                        |
+-----------------------------------------------------------------------+
+--------------------------------------------------------------------------------------------------------------------+
|  Inner_Iter|    rms[Rho]|   rms[RhoU]|   rms[RhoV]|   rms[RhoE]|          CD|          CL|         CMz|   LinSolRes|
+--------------------------------------------------------------------------------------------------------------------+
|        3025|   -8.190727|   -7.342102|   -7.782060|   -7.826105|    0.175808|    0.819297|    0.312406|   -0.621347|
|        3050|   -8.188919|   -7.347403|   -7.773670|   -7.826174|    0.175412|    0.820834|    0.312646|   -0.966806|
|        3075|   -8.174942|   -7.341308|   -7.775701|   -7.809134|    0.175027|    0.821400|    0.312504|   -0.761002|
|        3100|   -8.189310|   -7.343591|   -7.787417|   -7.831480|    0.174721|    0.822218|    0.312579|   -0.754758|
+-----------------------------------------------------------------------+
|        File Writing Summary       |              Filename             |
+-----------------------------------------------------------------------+
|SU2 binary restart                 |restart.dat                        |
|Paraview                           |vol_solution.vtu                   |
|Paraview surface                   |surface.vtu                        |
+-----------------------------------------------------------------------+
+--------------------------------------------------------------------------------------------------------------------+
|  Inner_Iter|    rms[Rho]|   rms[RhoU]|   rms[RhoV]|   rms[RhoE]|          CD|          CL|         CMz|   LinSolRes|
+--------------------------------------------------------------------------------------------------------------------+
|        3125|   -8.174260|   -7.337191|   -7.777552|   -7.808437|    0.174476|    0.823264|    0.312710|   -0.753636|
|        3150|   -8.179046|   -7.323263|   -7.780757|   -7.813090|    0.174106|    0.823832|    0.312611|   -0.739989|
|        3175|   -8.176192|   -7.323424|   -7.762301|   -7.811360|    0.173899|    0.825088|    0.312915|   -0.777524|
|        3200|   -8.162404|   -7.320224|   -7.748482|   -7.799158|    0.173601|    0.826391|    0.313085|   -0.757031|
+-----------------------------------------------------------------------+
|        File Writing Summary       |              Filename             |
+-----------------------------------------------------------------------+
|SU2 binary restart                 |restart.dat                        |
|Paraview                           |vol_solution.vtu                   |
|Paraview surface                   |surface.vtu                        |
+-----------------------------------------------------------------------+
+--------------------------------------------------------------------------------------------------------------------+
|  Inner_Iter|    rms[Rho]|   rms[RhoU]|   rms[RhoV]|   rms[RhoE]|          CD|          CL|         CMz|   LinSolRes|
+--------------------------------------------------------------------------------------------------------------------+
|        3225|   -8.157254|   -7.320420|   -7.744190|   -7.800553|    0.173237|    0.827065|    0.313029|   -0.767148|
|        3250|   -8.133646|   -7.312557|   -7.738161|   -7.777661|    0.172940|    0.829070|    0.313485|   -0.685478|
|        3275|   -8.140801|   -7.324868|   -7.768028|   -7.779275|    0.172269|    0.830501|    0.313408|   -0.943268|
|        3300|   -8.213725|   -7.324551|   -7.798711|   -7.870812|    0.171870|    0.832298|    0.313727|   -0.773787|
+-----------------------------------------------------------------------+
|        File Writing Summary       |              Filename             |
+-----------------------------------------------------------------------+
|SU2 binary restart                 |restart.dat                        |
|Paraview                           |vol_solution.vtu                   |
|Paraview surface                   |surface.vtu                        |
+-----------------------------------------------------------------------+
+--------------------------------------------------------------------------------------------------------------------+
|  Inner_Iter|    rms[Rho]|   rms[RhoU]|   rms[RhoV]|   rms[RhoE]|          CD|          CL|         CMz|   LinSolRes|
+--------------------------------------------------------------------------------------------------------------------+
|        3325|   -8.164458|   -7.316881|   -7.771207|   -7.804012|    0.171423|    0.833521|    0.313795|   -0.755071|
|        3350|   -8.155083|   -7.316476|   -7.764347|   -7.792729|    0.171088|    0.834477|    0.313833|   -0.774278|
|        3375|   -8.156713|   -7.313537|   -7.770217|   -7.796679|    0.170722|    0.835350|    0.313818|   -1.003467|
|        3400|   -8.143442|   -7.309864|   -7.765724|   -7.783969|    0.170393|    0.836325|    0.313873|   -0.739526|
+-----------------------------------------------------------------------+
|        File Writing Summary       |              Filename             |
+-----------------------------------------------------------------------+
|SU2 binary restart                 |restart.dat                        |
|Paraview                           |vol_solution.vtu                   |
|Paraview surface                   |surface.vtu                        |
+-----------------------------------------------------------------------+
+--------------------------------------------------------------------------------------------------------------------+
|  Inner_Iter|    rms[Rho]|   rms[RhoU]|   rms[RhoV]|   rms[RhoE]|          CD|          CL|         CMz|   LinSolRes|
+--------------------------------------------------------------------------------------------------------------------+
|        3425|   -8.151798|   -7.304772|   -7.764320|   -7.790106|    0.170092|    0.837554|    0.314059|   -0.745697|
|        3450|   -8.142748|   -7.295418|   -7.748066|   -7.786486|    0.169815|    0.838675|    0.314216|   -0.753165|
|        3475|   -8.137175|   -7.293839|   -7.724632|   -7.783239|    0.169548|    0.839908|    0.314414|   -0.769863|
|        3500|   -8.114636|   -7.287256|   -7.709028|   -7.760204|    0.169217|    0.841040|    0.314500|   -0.767760|
+-----------------------------------------------------------------------+
|        File Writing Summary       |              Filename             |
+-----------------------------------------------------------------------+
|SU2 binary restart                 |restart.dat                        |
|Paraview                           |vol_solution.vtu                   |
|Paraview surface                   |surface.vtu                        |
+-----------------------------------------------------------------------+
+--------------------------------------------------------------------------------------------------------------------+
|  Inner_Iter|    rms[Rho]|   rms[RhoU]|   rms[RhoV]|   rms[RhoE]|          CD|          CL|         CMz|   LinSolRes|
+--------------------------------------------------------------------------------------------------------------------+
|        3525|   -8.112155|   -7.284772|   -7.708229|   -7.759284|    0.168865|    0.842137|    0.314581|   -0.766700|
|        3550|   -8.097822|   -7.278662|   -7.711663|   -7.748146|    0.168589|    0.843364|    0.314783|   -0.745547|
|        3575|   -8.119203|   -7.280167|   -7.728322|   -7.767824|    0.168266|    0.844463|    0.314874|   -0.734926|
|        3600|   -8.126822|   -7.277951|   -7.738200|   -7.770442|    0.167894|    0.845502|    0.314915|   -0.749909|
+-----------------------------------------------------------------------+
|        File Writing Summary       |              Filename             |
+-----------------------------------------------------------------------+
|SU2 binary restart                 |restart.dat                        |
|Paraview                           |vol_solution.vtu                   |
|Paraview surface                   |surface.vtu                        |
+-----------------------------------------------------------------------+
+--------------------------------------------------------------------------------------------------------------------+
|  Inner_Iter|    rms[Rho]|   rms[RhoU]|   rms[RhoV]|   rms[RhoE]|          CD|          CL|         CMz|   LinSolRes|
+--------------------------------------------------------------------------------------------------------------------+
|        3625|   -8.165223|   -7.280491|   -7.747843|   -7.818350|    0.167581|    0.846880|    0.315128|   -0.780278|
|        3650|   -8.109457|   -7.276495|   -7.733624|   -7.752336|    0.167251|    0.847988|    0.315199|   -0.744845|
|        3675|   -8.118865|   -7.275902|   -7.731580|   -7.759790|    0.166878|    0.848974|    0.315217|   -0.747101|
|        3700|   -8.110315|   -7.276823|   -7.729012|   -7.753423|    0.166563|    0.850292|    0.315388|   -0.754647|
+-----------------------------------------------------------------------+
|        File Writing Summary       |              Filename             |
+-----------------------------------------------------------------------+
|SU2 binary restart                 |restart.dat                        |
|Paraview                           |vol_solution.vtu                   |
|Paraview surface                   |surface.vtu                        |
+-----------------------------------------------------------------------+
+--------------------------------------------------------------------------------------------------------------------+
|  Inner_Iter|    rms[Rho]|   rms[RhoU]|   rms[RhoV]|   rms[RhoE]|          CD|          CL|         CMz|   LinSolRes|
+--------------------------------------------------------------------------------------------------------------------+
|        3725|   -8.107656|   -7.269577|   -7.720313|   -7.753171|    0.166107|    0.852346|    0.315675|   -0.663156|
|        3750|   -8.123483|   -7.264501|   -7.709932|   -7.787390|    0.165615|    0.854791|    0.316119|   -0.755026|
|        3775|   -8.091159|   -7.261055|   -7.685892|   -7.744249|    0.165090|    0.856553|    0.316262|   -0.753987|
|        3800|   -8.080311|   -7.257419|   -7.689995|   -7.731433|    0.164698|    0.857596|    0.316283|   -0.765134|
+-----------------------------------------------------------------------+
|        File Writing Summary       |              Filename             |
+-----------------------------------------------------------------------+
|SU2 binary restart                 |restart.dat                        |
|Paraview                           |vol_solution.vtu                   |
|Paraview surface                   |surface.vtu                        |
+-----------------------------------------------------------------------+
+--------------------------------------------------------------------------------------------------------------------+
|  Inner_Iter|    rms[Rho]|   rms[RhoU]|   rms[RhoV]|   rms[RhoE]|          CD|          CL|         CMz|   LinSolRes|
+--------------------------------------------------------------------------------------------------------------------+
|        3825|   -8.079263|   -7.249891|   -7.698850|   -7.728178|    0.164396|    0.858935|    0.316511|   -0.996116|
|        3850|   -8.094767|   -7.243774|   -7.705638|   -7.734546|    0.164046|    0.860126|    0.316608|   -0.731942|
|        3875|   -8.151839|   -7.242105|   -7.714765|   -7.787486|    0.163618|    0.861211|    0.316614|   -0.718663|
|        3900|   -8.087754|   -7.251105|   -7.709472|   -7.727684|    0.163238|    0.862378|    0.316660|   -0.766716|
+-----------------------------------------------------------------------+
|        File Writing Summary       |              Filename             |
+-----------------------------------------------------------------------+
|SU2 binary restart                 |restart.dat                        |
|Paraview                           |vol_solution.vtu                   |
|Paraview surface                   |surface.vtu                        |
+-----------------------------------------------------------------------+
+--------------------------------------------------------------------------------------------------------------------+
|  Inner_Iter|    rms[Rho]|   rms[RhoU]|   rms[RhoV]|   rms[RhoE]|          CD|          CL|         CMz|   LinSolRes|
+--------------------------------------------------------------------------------------------------------------------+
|        3925|   -8.087913|   -7.250803|   -7.712371|   -7.724689|    0.162838|    0.863430|    0.316657|   -0.746278|
|        3950|   -8.083398|   -7.247134|   -7.706956|   -7.721633|    0.162477|    0.864692|    0.316779|   -0.729704|
|        3975|   -8.082332|   -7.240749|   -7.690074|   -7.721757|    0.162139|    0.866133|    0.316949|   -0.740488|
|        4000|   -8.097496|   -7.231893|   -7.683316|   -7.749218|    0.161771|    0.867471|    0.317095|   -0.729884|
+-----------------------------------------------------------------------+
|        File Writing Summary       |              Filename             |
+-----------------------------------------------------------------------+
|SU2 binary restart                 |restart.dat                        |
|Paraview                           |vol_solution.vtu                   |
|Paraview surface                   |surface.vtu                        |
+-----------------------------------------------------------------------+
+--------------------------------------------------------------------------------------------------------------------+
|  Inner_Iter|    rms[Rho]|   rms[RhoU]|   rms[RhoV]|   rms[RhoE]|          CD|          CL|         CMz|   LinSolRes|
+--------------------------------------------------------------------------------------------------------------------+
|        4025|   -8.054368|   -7.224584|   -7.647000|   -7.702941|    0.161521|    0.869118|    0.317431|   -0.767466|
|        4050|   -8.036238|   -7.217065|   -7.634867|   -7.687504|    0.161091|    0.871147|    0.317719|   -0.747629|
|        4075|   -8.068854|   -7.219316|   -7.650495|   -7.736427|    0.160645|    0.872374|    0.317752|   -0.887121|
|        4100|   -8.052932|   -7.222525|   -7.680094|   -7.702397|    0.159937|    0.875266|    0.318090|   -0.661756|
+-----------------------------------------------------------------------+
|        File Writing Summary       |              Filename             |
+-----------------------------------------------------------------------+
|SU2 binary restart                 |restart.dat                        |
|Paraview                           |vol_solution.vtu                   |
|Paraview surface                   |surface.vtu                        |
+-----------------------------------------------------------------------+
+--------------------------------------------------------------------------------------------------------------------+
|  Inner_Iter|    rms[Rho]|   rms[RhoU]|   rms[RhoV]|   rms[RhoE]|          CD|          CL|         CMz|   LinSolRes|
+--------------------------------------------------------------------------------------------------------------------+
|        4125|   -8.104814|   -7.222324|   -7.706326|   -7.754668|    0.159255|    0.877321|    0.318209|   -0.724177|
|        4150|   -8.074045|   -7.220351|   -7.691797|   -7.714476|    0.158830|    0.878630|    0.318279|   -1.005997|
|        4175|   -8.059047|   -7.214579|   -7.681516|   -7.697106|    0.158380|    0.879815|    0.318259|   -0.740206|
|        4200|   -8.050996|   -7.211102|   -7.666385|   -7.686518|    0.157959|    0.881144|    0.318320|   -0.757003|
+-----------------------------------------------------------------------+
|        File Writing Summary       |              Filename             |
+-----------------------------------------------------------------------+
|SU2 binary restart                 |restart.dat                        |
|Paraview                           |vol_solution.vtu                   |
|Paraview surface                   |surface.vtu                        |
+-----------------------------------------------------------------------+
+--------------------------------------------------------------------------------------------------------------------+
|  Inner_Iter|    rms[Rho]|   rms[RhoU]|   rms[RhoV]|   rms[RhoE]|          CD|          CL|         CMz|   LinSolRes|
+--------------------------------------------------------------------------------------------------------------------+
|        4225|   -8.071608|   -7.206125|   -7.671816|   -7.718549|    0.157566|    0.882551|    0.318475|   -0.730770|
|        4250|   -8.027740|   -7.191304|   -7.630679|   -7.675961|    0.157286|    0.884340|    0.318858|   -0.984263|
|        4275|   -8.022684|   -7.182087|   -7.599515|   -7.664231|    0.156875|    0.885708|    0.318874|   -0.750058|
|        4300|   -8.009600|   -7.170760|   -7.591251|   -7.653869|    0.156415|    0.886960|    0.318930|   -0.766675|
+-----------------------------------------------------------------------+
|        File Writing Summary       |              Filename             |
+-----------------------------------------------------------------------+
|SU2 binary restart                 |restart.dat                        |
|Paraview                           |vol_solution.vtu                   |
|Paraview surface                   |surface.vtu                        |
+-----------------------------------------------------------------------+
+--------------------------------------------------------------------------------------------------------------------+
|  Inner_Iter|    rms[Rho]|   rms[RhoU]|   rms[RhoV]|   rms[RhoE]|          CD|          CL|         CMz|   LinSolRes|
+--------------------------------------------------------------------------------------------------------------------+
|        4325|   -7.990393|   -7.162860|   -7.593884|   -7.631426|    0.155818|    0.889823|    0.319306|   -0.673596|
|        4350|   -8.009797|   -7.191116|   -7.645401|   -7.646903|    0.155042|    0.892315|    0.319469|   -0.594505|
|        4375|   -8.078986|   -7.190730|   -7.668069|   -7.734047|    0.154330|    0.894481|    0.319525|   -0.714704|
|        4400|   -8.015618|   -7.189371|   -7.650205|   -7.656808|    0.153857|    0.895794|    0.319534|   -0.750184|
+-----------------------------------------------------------------------+
|        File Writing Summary       |              Filename             |
+-----------------------------------------------------------------------+
|SU2 binary restart                 |restart.dat                        |
|Paraview                           |vol_solution.vtu                   |
|Paraview surface                   |surface.vtu                        |
+-----------------------------------------------------------------------+
+--------------------------------------------------------------------------------------------------------------------+
|  Inner_Iter|    rms[Rho]|   rms[RhoU]|   rms[RhoV]|   rms[RhoE]|          CD|          CL|         CMz|   LinSolRes|
+--------------------------------------------------------------------------------------------------------------------+
|        4425|   -8.012604|   -7.180669|   -7.649797|   -7.656403|    0.153471|    0.897352|    0.319729|   -0.745484|
|        4450|   -8.021014|   -7.175127|   -7.633399|   -7.665784|    0.153094|    0.899169|    0.320003|   -0.993287|
|        4475|   -8.038591|   -7.165125|   -7.617374|   -7.698289|    0.152652|    0.901116|    0.320239|   -0.770316|
|        4500|   -7.984327|   -7.159468|   -7.591505|   -7.633029|    0.152225|    0.902702|    0.320369|   -0.761822|
+-----------------------------------------------------------------------+
|        File Writing Summary       |              Filename             |
+-----------------------------------------------------------------------+
|SU2 binary restart                 |restart.dat                        |
|Paraview                           |vol_solution.vtu                   |
|Paraview surface                   |surface.vtu                        |
+-----------------------------------------------------------------------+
+--------------------------------------------------------------------------------------------------------------------+
|  Inner_Iter|    rms[Rho]|   rms[RhoU]|   rms[RhoV]|   rms[RhoE]|          CD|          CL|         CMz|   LinSolRes|
+--------------------------------------------------------------------------------------------------------------------+
|        4525|   -7.976353|   -7.154407|   -7.582345|   -7.623598|    0.151790|    0.904330|    0.320519|   -0.756586|
|        4550|   -7.970895|   -7.153487|   -7.594338|   -7.622126|    0.151345|    0.905945|    0.320652|   -0.732535|
|        4575|   -8.057087|   -7.156752|   -7.628343|   -7.731131|    0.150854|    0.907459|    0.320722|   -1.080935|
|        4600|   -7.993302|   -7.157988|   -7.626451|   -7.639747|    0.150413|    0.909329|    0.320884|   -0.740603|
+-----------------------------------------------------------------------+
|        File Writing Summary       |              Filename             |
+-----------------------------------------------------------------------+
|SU2 binary restart                 |restart.dat                        |
|Paraview                           |vol_solution.vtu                   |
|Paraview surface                   |surface.vtu                        |
+-----------------------------------------------------------------------+
+--------------------------------------------------------------------------------------------------------------------+
|  Inner_Iter|    rms[Rho]|   rms[RhoU]|   rms[RhoV]|   rms[RhoE]|          CD|          CL|         CMz|   LinSolRes|
+--------------------------------------------------------------------------------------------------------------------+
|        4625|   -7.986465|   -7.151390|   -7.614912|   -7.628635|    0.149977|    0.911024|    0.321062|   -0.732889|
|        4650|   -7.981691|   -7.150818|   -7.611398|   -7.625231|    0.149504|    0.912585|    0.321104|   -0.745576|
|        4675|   -7.980852|   -7.144544|   -7.601298|   -7.628994|    0.149128|    0.914483|    0.321439|   -0.744880|
|        4700|   -7.969960|   -7.141582|   -7.575206|   -7.618742|    0.148796|    0.916652|    0.321818|   -0.748248|
+-----------------------------------------------------------------------+
|        File Writing Summary       |              Filename             |
+-----------------------------------------------------------------------+
|SU2 binary restart                 |restart.dat                        |
|Paraview                           |vol_solution.vtu                   |
|Paraview surface                   |surface.vtu                        |
+-----------------------------------------------------------------------+
+--------------------------------------------------------------------------------------------------------------------+
|  Inner_Iter|    rms[Rho]|   rms[RhoU]|   rms[RhoV]|   rms[RhoE]|          CD|          CL|         CMz|   LinSolRes|
+--------------------------------------------------------------------------------------------------------------------+
|        4725|   -7.952613|   -7.133136|   -7.562698|   -7.604093|    0.148339|    0.918316|    0.321937|   -0.740900|
|        4750|   -7.953044|   -7.130896|   -7.561618|   -7.606595|    0.147863|    0.920922|    0.322370|   -0.684754|
|        4775|   -7.978736|   -7.132808|   -7.587216|   -7.644479|    0.146961|    0.924181|    0.322608|   -0.650175|
|        4800|   -8.020439|   -7.140767|   -7.623354|   -7.683504|    0.146241|    0.927306|    0.322997|   -0.762031|
+-----------------------------------------------------------------------+
|        File Writing Summary       |              Filename             |
+-----------------------------------------------------------------------+
|SU2 binary restart                 |restart.dat                        |
|Paraview                           |vol_solution.vtu                   |
|Paraview surface                   |surface.vtu                        |
+-----------------------------------------------------------------------+
+--------------------------------------------------------------------------------------------------------------------+
|  Inner_Iter|    rms[Rho]|   rms[RhoU]|   rms[RhoV]|   rms[RhoE]|          CD|          CL|         CMz|   LinSolRes|
+--------------------------------------------------------------------------------------------------------------------+
|        4825|   -7.963209|   -7.134734|   -7.600842|   -7.598874|    0.145344|    0.930230|    0.323114|   -0.574850|
|        4850|   -7.967527|   -7.132253|   -7.603737|   -7.608459|    0.144835|    0.931870|    0.323183|   -0.745730|
|        4875|   -7.972523|   -7.129940|   -7.596482|   -7.616734|    0.144404|    0.933706|    0.323408|   -0.745053|
|        4900|   -7.958231|   -7.122231|   -7.576382|   -7.603343|    0.143923|    0.936250|    0.323793|   -0.667565|
+-----------------------------------------------------------------------+
|        File Writing Summary       |              Filename             |
+-----------------------------------------------------------------------+
|SU2 binary restart                 |restart.dat                        |
|Paraview                           |vol_solution.vtu                   |
|Paraview surface                   |surface.vtu                        |
+-----------------------------------------------------------------------+
+--------------------------------------------------------------------------------------------------------------------+
|  Inner_Iter|    rms[Rho]|   rms[RhoU]|   rms[RhoV]|   rms[RhoE]|          CD|          CL|         CMz|   LinSolRes|
+--------------------------------------------------------------------------------------------------------------------+
|        4925|   -7.929869|   -7.117315|   -7.559699|   -7.575648|    0.142997|    0.939706|    0.324048|   -0.636489|
|        4950|   -7.934127|   -7.115799|   -7.556788|   -7.585657|    0.142386|    0.942069|    0.324276|   -0.738982|
|        4975|   -7.936315|   -7.111588|   -7.565540|   -7.589230|    0.141882|    0.943822|    0.324376|   -0.727818|
[...]
|  Inner_Iter|    rms[Rho]|   rms[RhoU]|   rms[RhoV]|   rms[RhoE]|          CD|          CL|         CMz|   LinSolRes|
+--------------------------------------------------------------------------------------------------------------------+
|       23625|   -7.847546|   -7.012273|   -7.476525|   -7.504539|    0.107219|    1.102329|    0.341343|   -0.673579|
|       23650|   -7.835532|   -7.016801|   -7.472968|   -7.489235|    0.106243|    1.106230|    0.341528|   -0.742445|
|       23675|   -7.854187|   -7.017987|   -7.478286|   -7.509364|    0.105561|    1.111036|    0.342408|   -0.669054|
|       23700|   -7.828816|   -7.014306|   -7.474969|   -7.480592|    0.104742|    1.113457|    0.342268|   -0.726780|
+-----------------------------------------------------------------------+
|        File Writing Summary       |              Filename             |
+-----------------------------------------------------------------------+
|SU2 binary restart                 |restart.dat                        |
|Paraview                           |vol_solution.vtu                   |
|Paraview surface                   |surface.vtu                        |
+-----------------------------------------------------------------------+
+--------------------------------------------------------------------------------------------------------------------+
|  Inner_Iter|    rms[Rho]|   rms[RhoU]|   rms[RhoV]|   rms[RhoE]|          CD|          CL|         CMz|   LinSolRes|
+--------------------------------------------------------------------------------------------------------------------+
|       23725|   -7.841956|   -7.011049|   -7.487534|   -7.494725|    0.104237|    1.116235|    0.342732|   -0.736020|
|       23750|   -7.852291|   -7.015397|   -7.477217|   -7.504054|    0.103753|    1.119861|    0.343314|   -0.737540|
|       23775|   -7.829118|   -7.011720|   -7.469999|   -7.480696|    0.103059|    1.122118|    0.343287|   -0.731213|
|       23800|   -7.827908|   -7.010678|   -7.464995|   -7.479714|    0.102408|    1.127871|    0.344458|   -0.680327|
+-----------------------------------------------------------------------+
|        File Writing Summary       |              Filename             |
+-----------------------------------------------------------------------+
|SU2 binary restart                 |restart.dat                        |
|Paraview                           |vol_solution.vtu                   |
|Paraview surface                   |surface.vtu                        |
+-----------------------------------------------------------------------+
+--------------------------------------------------------------------------------------------------------------------+
|  Inner_Iter|    rms[Rho]|   rms[RhoU]|   rms[RhoV]|   rms[RhoE]|          CD|          CL|         CMz|   LinSolRes|
+--------------------------------------------------------------------------------------------------------------------+
|       23825|   -7.826390|   -7.010400|   -7.464209|   -7.480990|    0.101558|    1.130192|    0.344309|   -0.730468|
|       23850|   -7.855232|   -7.011671|   -7.475698|   -7.518201|    0.101141|    1.133892|    0.345121|   -0.674828|
|       23875|   -7.831096|   -7.016008|   -7.470026|   -7.488219|    0.100134|    1.138907|    0.345584|   -0.729321|
|       23900|   -7.830013|   -7.016854|   -7.481872|   -7.484115|    0.099584|    1.142151|    0.346083|   -0.739000|
+-----------------------------------------------------------------------+
|        File Writing Summary       |              Filename             |
+-----------------------------------------------------------------------+
|SU2 binary restart                 |restart.dat                        |
|Paraview                           |vol_solution.vtu                   |
|Paraview surface                   |surface.vtu                        |
+-----------------------------------------------------------------------+
+--------------------------------------------------------------------------------------------------------------------+
|  Inner_Iter|    rms[Rho]|   rms[RhoU]|   rms[RhoV]|   rms[RhoE]|          CD|          CL|         CMz|   LinSolRes|
+--------------------------------------------------------------------------------------------------------------------+
|       23925|   -7.829864|   -7.014923|   -7.479058|   -7.488023|    0.099088|    1.145228|    0.346515|   -0.731054|
|       23950|   -7.884626|   -7.014481|   -7.484067|   -7.553671|    0.098450|    1.147889|    0.346689|   -0.708759|
|       23975|   -7.832532|   -7.011169|   -7.475931|   -7.486032|    0.097979|    1.150886|    0.347158|   -0.744611|
|       24000|   -7.848741|   -7.012273|   -7.474948|   -7.503060|    0.097385|    1.154149|    0.347550|   -0.735444|
+-----------------------------------------------------------------------+
|        File Writing Summary       |              Filename             |
+-----------------------------------------------------------------------+
|SU2 binary restart                 |restart.dat                        |
|Paraview                           |vol_solution.vtu                   |
|Paraview surface                   |surface.vtu                        |
+-----------------------------------------------------------------------+
+--------------------------------------------------------------------------------------------------------------------+
|  Inner_Iter|    rms[Rho]|   rms[RhoU]|   rms[RhoV]|   rms[RhoE]|          CD|          CL|         CMz|   LinSolRes|
+--------------------------------------------------------------------------------------------------------------------+
|       24025|   -7.835270|   -7.012735|   -7.473329|   -7.490729|    0.096885|    1.156916|    0.347914|   -0.729960|
|       24050|   -7.831195|   -7.012294|   -7.471742|   -7.486477|    0.096444|    1.159929|    0.348395|   -0.735847|
|       24075|   -7.843682|   -7.013419|   -7.475842|   -7.498743|    0.095854|    1.162830|    0.348663|   -0.992070|
|       24100|   -7.842747|   -7.016587|   -7.475399|   -7.499885|    0.095321|    1.165936|    0.349133|   -0.741186|
+-----------------------------------------------------------------------+
|        File Writing Summary       |              Filename             |
+-----------------------------------------------------------------------+
|SU2 binary restart                 |restart.dat                        |
|Paraview                           |vol_solution.vtu                   |
|Paraview surface                   |surface.vtu                        |
+-----------------------------------------------------------------------+
+--------------------------------------------------------------------------------------------------------------------+
|  Inner_Iter|    rms[Rho]|   rms[RhoU]|   rms[RhoV]|   rms[RhoE]|          CD|          CL|         CMz|   LinSolRes|
+--------------------------------------------------------------------------------------------------------------------+
|       24125|   -7.837028|   -7.018519|   -7.475403|   -7.494568|    0.094856|    1.169140|    0.349610|   -0.736974|
|       24150|   -7.839128|   -7.017097|   -7.479151|   -7.496672|    0.094326|    1.171889|    0.349945|   -0.733667|
|       24175|   -7.851748|   -7.021968|   -7.484199|   -7.508115|    0.093834|    1.175214|    0.350457|   -0.742272|
|       24200|   -7.855776|   -7.026877|   -7.486233|   -7.513703|    0.093075|    1.180086|    0.351201|   -0.680868|
+-----------------------------------------------------------------------+
|        File Writing Summary       |              Filename             |
+-----------------------------------------------------------------------+
|SU2 binary restart                 |restart.dat                        |
|Paraview                           |vol_solution.vtu                   |
|Paraview surface                   |surface.vtu                        |
+-----------------------------------------------------------------------+
+--------------------------------------------------------------------------------------------------------------------+
|  Inner_Iter|    rms[Rho]|   rms[RhoU]|   rms[RhoV]|   rms[RhoE]|          CD|          CL|         CMz|   LinSolRes|
+--------------------------------------------------------------------------------------------------------------------+
|       24225|   -7.902048|   -7.032572|   -7.508853|   -7.572382|    0.092176|    1.184620|    0.351690|   -0.712616|
|       24250|   -7.858605|   -7.034099|   -7.501767|   -7.518252|    0.091692|    1.187354|    0.352061|   -0.741933|
|       24275|   -7.868922|   -7.034441|   -7.500038|   -7.523024|    0.091119|    1.191226|    0.352643|   -0.680846|
|       24300|   -7.853115|   -7.034198|   -7.499037|   -7.507560|    0.090377|    1.194489|    0.352892|   -0.742400|
+-----------------------------------------------------------------------+
|        File Writing Summary       |              Filename             |
+-----------------------------------------------------------------------+
|SU2 binary restart                 |restart.dat                        |
|Paraview                           |vol_solution.vtu                   |
|Paraview surface                   |surface.vtu                        |
+-----------------------------------------------------------------------+
+--------------------------------------------------------------------------------------------------------------------+
|  Inner_Iter|    rms[Rho]|   rms[RhoU]|   rms[RhoV]|   rms[RhoE]|          CD|          CL|         CMz|   LinSolRes|
+--------------------------------------------------------------------------------------------------------------------+
|       24325|   -7.863619|   -7.037514|   -7.497680|   -7.520998|    0.089855|    1.199616|    0.354007|   -0.670365|
|       24350|   -7.863995|   -7.039110|   -7.494143|   -7.519329|    0.088957|    1.203390|    0.354143|   -0.743038|
|       24375|   -7.862177|   -7.037983|   -7.497190|   -7.518876|    0.088507|    1.206193|    0.354628|   -0.751426|
|       24400|   -7.858488|   -7.038921|   -7.494459|   -7.514409|    0.088072|    1.209485|    0.355118|   -0.737205|
+-----------------------------------------------------------------------+
|        File Writing Summary       |              Filename             |
+-----------------------------------------------------------------------+
|SU2 binary restart                 |restart.dat                        |
|Paraview                           |vol_solution.vtu                   |
|Paraview surface                   |surface.vtu                        |
+-----------------------------------------------------------------------+
+--------------------------------------------------------------------------------------------------------------------+
|  Inner_Iter|    rms[Rho]|   rms[RhoU]|   rms[RhoV]|   rms[RhoE]|          CD|          CL|         CMz|   LinSolRes|
+--------------------------------------------------------------------------------------------------------------------+
|       24425|   -7.891936|   -7.036636|   -7.506209|   -7.563731|    0.087537|    1.212066|    0.355400|   -0.704449|
|       24450|   -7.864836|   -7.037609|   -7.504369|   -7.516663|    0.087083|    1.215399|    0.355939|   -0.683696|
|       24475|   -7.856865|   -7.045127|   -7.498201|   -7.514996|    0.086358|    1.219701|    0.356493|   -0.739083|
|       24500|   -7.865516|   -7.046387|   -7.507761|   -7.521708|    0.085842|    1.223075|    0.357042|   -0.681997|
+-----------------------------------------------------------------------+
|        File Writing Summary       |              Filename             |
+-----------------------------------------------------------------------+
|SU2 binary restart                 |restart.dat                        |
|Paraview                           |vol_solution.vtu                   |
|Paraview surface                   |surface.vtu                        |
+-----------------------------------------------------------------------+
+--------------------------------------------------------------------------------------------------------------------+
|  Inner_Iter|    rms[Rho]|   rms[RhoU]|   rms[RhoV]|   rms[RhoE]|          CD|          CL|         CMz|   LinSolRes|
+--------------------------------------------------------------------------------------------------------------------+
|       24525|   -7.864234|   -7.050272|   -7.507743|   -7.523592|    0.085224|    1.227053|    0.357577|   -0.736091|
|       24550|   -7.877440|   -7.050137|   -7.511868|   -7.535736|    0.084688|    1.229636|    0.357842|   -0.742281|
|       24575|   -7.875008|   -7.051935|   -7.510213|   -7.532416|    0.084354|    1.233572|    0.358700|   -0.740836|
|       24600|   -7.866707|   -7.050685|   -7.508814|   -7.523829|    0.083755|    1.235971|    0.358772|   -0.736010|
+-----------------------------------------------------------------------+
|        File Writing Summary       |              Filename             |
+-----------------------------------------------------------------------+
|SU2 binary restart                 |restart.dat                        |
|Paraview                           |vol_solution.vtu                   |
|Paraview surface                   |surface.vtu                        |
+-----------------------------------------------------------------------+
+--------------------------------------------------------------------------------------------------------------------+
|  Inner_Iter|    rms[Rho]|   rms[RhoU]|   rms[RhoV]|   rms[RhoE]|          CD|          CL|         CMz|   LinSolRes|
+--------------------------------------------------------------------------------------------------------------------+
|       24625|   -7.867575|   -7.050569|   -7.512462|   -7.524077|    0.083380|    1.239087|    0.359430|   -0.735513|
|       24650|   -7.876901|   -7.053533|   -7.508688|   -7.533672|    0.083000|    1.241989|    0.359839|   -0.744846|
|       24675|   -7.911173|   -7.058247|   -7.520621|   -7.584474|    0.082494|    1.244702|    0.360186|   -0.710101|
|       24700|   -7.867290|   -7.060878|   -7.512269|   -7.526293|    0.082162|    1.247611|    0.360719|   -0.738228|
+-----------------------------------------------------------------------+
|        File Writing Summary       |              Filename             |
+-----------------------------------------------------------------------+
|SU2 binary restart                 |restart.dat                        |
|Paraview                           |vol_solution.vtu                   |
|Paraview surface                   |surface.vtu                        |
+-----------------------------------------------------------------------+
+--------------------------------------------------------------------------------------------------------------------+
|  Inner_Iter|    rms[Rho]|   rms[RhoU]|   rms[RhoV]|   rms[RhoE]|          CD|          CL|         CMz|   LinSolRes|
+--------------------------------------------------------------------------------------------------------------------+
|       24725|   -7.881502|   -7.062885|   -7.517491|   -7.541747|    0.081723|    1.250401|    0.361114|   -0.734581|
|       24750|   -7.879103|   -7.065626|   -7.520798|   -7.542580|    0.081361|    1.253164|    0.361602|   -0.732685|
|       24775|   -7.893932|   -7.071803|   -7.524075|   -7.554283|    0.080789|    1.257948|    0.362442|   -0.678432|
|       24800|   -7.894093|   -7.079219|   -7.536623|   -7.555770|    0.080065|    1.261392|    0.362750|   -0.740793|
+-----------------------------------------------------------------------+
|        File Writing Summary       |              Filename             |
+-----------------------------------------------------------------------+
|SU2 binary restart                 |restart.dat                        |
|Paraview                           |vol_solution.vtu                   |
|Paraview surface                   |surface.vtu                        |
+-----------------------------------------------------------------------+
+--------------------------------------------------------------------------------------------------------------------+
|  Inner_Iter|    rms[Rho]|   rms[RhoU]|   rms[RhoV]|   rms[RhoE]|          CD|          CL|         CMz|   LinSolRes|
+--------------------------------------------------------------------------------------------------------------------+
|       24825|   -7.904147|   -7.081473|   -7.546652|   -7.566960|    0.079705|    1.264149|    0.363245|   -0.734977|
|       24850|   -7.903228|   -7.082685|   -7.548656|   -7.564199|    0.079353|    1.266798|    0.363651|   -0.735292|
|       24875|   -7.911051|   -7.080972|   -7.548726|   -7.566324|    0.078906|    1.269176|    0.363891|   -0.743180|
|       24900|   -7.922592|   -7.084735|   -7.549952|   -7.575289|    0.078450|    1.273327|    0.364692|   -0.686765|
+-----------------------------------------------------------------------+
|        File Writing Summary       |              Filename             |
+-----------------------------------------------------------------------+
|SU2 binary restart                 |restart.dat                        |
|Paraview                           |vol_solution.vtu                   |
|Paraview surface                   |surface.vtu                        |
+-----------------------------------------------------------------------+
+--------------------------------------------------------------------------------------------------------------------+
|  Inner_Iter|    rms[Rho]|   rms[RhoU]|   rms[RhoV]|   rms[RhoE]|          CD|          CL|         CMz|   LinSolRes|
+--------------------------------------------------------------------------------------------------------------------+
|       24925|   -7.920983|   -7.092756|   -7.551462|   -7.575959|    0.077776|    1.277496|    0.365228|   -0.679807|
|       24950|   -7.911293|   -7.097179|   -7.557169|   -7.570162|    0.077338|    1.280414|    0.365671|   -0.749834|
|       24975|   -7.922673|   -7.100870|   -7.556776|   -7.582618|    0.076970|    1.282825|    0.365988|   -0.749111|
|       24999|   -7.920576|   -7.104195|   -7.552269|   -7.579257|    0.076552|    1.287211|    0.366871|   -0.677858|

----------------------------- Solver Exit -------------------------------

Maximum number of iterations reached (ITER = 25000) before convergence.
+-----------------------------------------------------------------------+
|      Convergence Field     |     Value    |   Criterion  |  Converged |
+-----------------------------------------------------------------------+
|                  Cauchy[CL]|    0.00010271|       < 5e-07|          No|
+-----------------------------------------------------------------------+
-------------------------------------------------------------------------
+-----------------------------------------------------------------------+
|        File Writing Summary       |              Filename             |
+-----------------------------------------------------------------------+
|SU2 binary restart                 |restart.dat                        |
|Paraview                           |vol_solution.vtu                   |
|Paraview surface                   |surface.vtu                        |
+-----------------------------------------------------------------------+

------------------------- Solver Postprocessing -------------------------
Deleted CNumerics container.
Deleted CIntegration container.
Deleted CSolver container.
Deleted CIteration container.
Deleted CInterface container.
Deleted CGeometry container.
Deleted CFreeFormDefBox class.
Deleted CSurfaceMovement class.
Deleted CVolumetricMovement class.
Deleted CConfig container.
Deleted nInst container.
Deleted COutput class.
-------------------------------------------------------------------------

------------------------- Exit Success (SU2_CFD) ------------------------

