WARNING: The current SST-1994m model is inconsistent with literature. We recommend using the SST-2003m model.
In SU2 v8 the 2003m model will become default, and the inconsistency will be fixed.

-------------------------------------------------------------------------
|    ___ _   _ ___                                                      |
|   / __| | | |_  )   Release 7.4.0 "Blackbird"                         |
|   \__ \ |_| |/ /                                                      |
|   |___/\___//___|   Suite (Computational Fluid Dynamics Code)         |
|                                                                       |
-------------------------------------------------------------------------
| SU2 Project Website: https://su2code.github.io                        |
|                                                                       |
| The SU2 Project is maintained by the SU2 Foundation                   |
| (http://su2foundation.org)                                            |
-------------------------------------------------------------------------
| Copyright 2012-2022, SU2 Contributors                                 |
|                                                                       |
| SU2 is free software; you can redistribute it and/or                  |
| modify it under the terms of the GNU Lesser General Public            |
| License as published by the Free Software Foundation; either          |
| version 2.1 of the License, or (at your option) any later version.    |
|                                                                       |
| SU2 is distributed in the hope that it will be useful,                |
| but WITHOUT ANY WARRANTY; without even the implied warranty of        |
| MERCHANTABILITY or FITNESS FOR A PARTICULAR PURPOSE. See the GNU      |
| Lesser General Public License for more details.                       |
|                                                                       |
| You should have received a copy of the GNU Lesser General Public      |
| License along with SU2. If not, see <http://www.gnu.org/licenses/>.   |
-------------------------------------------------------------------------
WARNING: The current SST-1994m model is inconsistent with literature. We recommend using the SST-2003m model.
In SU2 v8 the 2003m model will become default, and the inconsistency will be fixed.

Parsing config file for zone 0
WARNING: The current SST-1994m model is inconsistent with literature. We recommend using the SST-2003m model.
In SU2 v8 the 2003m model will become default, and the inconsistency will be fixed.

----------------- Physical Case Definition ( Zone 0 ) -------------------
Compressible RANS equations.
Turbulence model: Menter's k-omega SST-1994m with no production modification.
Hybrid RANS/LES: No Hybrid RANS/LES
Mach number: 0.2.
Angle of attack (AoA): 12 deg, and angle of sideslip (AoS): 0 deg.
Reynolds number: 1.22082e+07. Reference length 2.62.
Reading and writing binary SU2 native restart files.
Read flow solution from: solution_flow.
Non-Dimensional simulation (V=Mach, Rho=1.0, T=1.0 at the farfield).
The reference area is 2.62 m^2.
The semi-span will be computed using the max y(3D) value.
The reference length is 2.62 m.
Reference origin for moment evaluation is (0, 0, 0).
Surface(s) where the force coefficients are evaluated: wall.

Surface(s) plotted in the output file: wall.
Input mesh file name: su2meshEx.su2

--------------- Space Numerical Integration ( Zone 0 ) ------------------
Roe (with entropy fix = 1e-05) solver for the flow inviscid terms.
Standard Roe without low-dissipation function.
Second order integration in space, with slope limiter.
Van Albada slope-limiting method implemented by edges.
Scalar upwind solver for the turbulence model.
First order integration in space.
Average of gradients with correction (viscous flow terms).
Average of gradients with correction (viscous turbulence terms).
Gradient for upwind reconstruction: Green-Gauss.
Gradient for viscous and source terms: Green-Gauss.

--------------- Time Numerical Integration  ( Zone 0 ) ------------------
Local time stepping (steady state simulation).
Euler implicit method for the flow equations.
FGMRES is used for solving the linear system.
Using a ILU(0) preconditioning.
Convergence criteria of the linear solver: 0.2.
Max number of linear iterations: 4.
CFL adaptation. Factor down: 0.1, factor up: 1.2,
                lower limit: 25, upper limit: 1000,
                acceptable linear residual: 0.001.
Courant-Friedrichs-Lewy number:       25
Euler implicit time integration for the turbulence model.

------------------ Convergence Criteria  ( Zone 0 ) ---------------------
Maximum number of solver subiterations: 25000.
Begin convergence monitoring at iteration 10.
Residual minimum value: 1e-11.5.
Cauchy series min. value: 5e-07.
Number of Cauchy elements: 500.
Begin windowed time average at iteration 0.

-------------------- Output Information ( Zone 0 ) ----------------------
File writing frequency: 
+------------------------------------+
|                     File| Frequency|
+------------------------------------+
|                  RESTART|       100|
|                 PARAVIEW|       100|
|         SURFACE_PARAVIEW|       100|
+------------------------------------+
Writing the convergence history file every 1 inner iterations.
Writing the screen convergence history every 25 inner iterations.
The tabular file format is CSV (.csv).
Convergence history file name: history.
Forces breakdown file name: forces_breakdown.dat.
Surface file name: surface.
Volume file name: vol_solution.
Restart file name: restart.dat.

------------- Config File Boundary Information ( Zone 0 ) ---------------
+-----------------------------------------------------------------------+
|                        Marker Type|                        Marker Name|
+-----------------------------------------------------------------------+
|                          Far-field|                          far-field|
+-----------------------------------------------------------------------+
|                     Heat flux wall|                               wall|
+-----------------------------------------------------------------------+

-------------------- Output Preprocessing ( Zone 0 ) --------------------

WARNING: SURFACE_PRESSURE_DROP can only be computed for at least 2 surfaces (outlet, inlet, ...)

  Info: Ignoring the following screen output fields:
  RMS_NU_TILDE
Screen output fields: INNER_ITER, RMS_DENSITY, RMS_MOMENTUM-X, RMS_MOMENTUM-Y, RMS_ENERGY, DRAG, LIFT, MOMENT_Z, LINSOL_RESIDUAL
History output group(s): ITER, RMS_RES, AERO_COEFF
Convergence field(s): LIFT
Warning: No (valid) fields chosen for time convergence monitoring. Time convergence monitoring inactive.
Volume output fields: COORDINATES, SOLUTION, PRIMITIVE

------------------- Geometry Preprocessing ( Zone 0 ) -------------------
Two dimensional problem.
82001 grid points before partitioning.
110096 volume elements before partitioning.
2 surface markers.
76 boundary elements in index 0 (Marker = far-field).
723 boundary elements in index 1 (Marker = wall).
Executing the partitioning functions.
Building the graph adjacency structure.
Calling ParMETIS... graph partitioning complete (1791 edge cuts).
Distributing ParMETIS coloring.
Rebalancing vertices.
Rebalancing volume element connectivity.
Rebalancing markers and surface elements.
84501 vertices including ghost points. 
111887 interior elements including halo cells. 
58082 triangles.
53805 quadrilaterals.
Establishing MPI communication patterns.
Setting point connectivity.
Renumbering points (Reverse Cuthill McKee Ordering).
Recomputing point connectivity.
Setting element connectivity.
Checking the numerical grid orientation.
All volume elements are correctly orientend.
All surface elements are correctly orientend.
Identifying edges and vertices.
Setting the control volume structure.
Area of the computational grid: 98853.7.
Searching for the closest normal neighbors to the surfaces.
Storing a mapping from global to local point index.
Compute the surface curvature.
Max K: 1170.36. Mean K: 8.52212. Standard deviation K: 78.5888.
Checking for periodicity.
Computing mesh quality statistics for the dual control volumes.
+--------------------------------------------------------------+
|           Mesh Quality Metric|        Minimum|        Maximum|
+--------------------------------------------------------------+
|    Orthogonality Angle (deg.)|        60.5564|             90|
|     CV Face Area Aspect Ratio|        1.00119|        10426.8|
|           CV Sub-Volume Ratio|              1|        5.72924|
+--------------------------------------------------------------+
Finding max control volume width.
Communicating number of neighbors.
Wetted area = 6.32542 m.
Area projection in the x-plane = 0.630114 m, y-plane = 2.96262 m.
Max. coordinate in the x-direction = 2.9339 m, y-direction = 0.165086 m.
Min. coordinate in the x-direction = 0 m, y-direction = -0.309055 m.
Computing wall distances.

-------------------- Solver Preprocessing ( Zone 0 ) --------------------
Viscous flow: Computing pressure using the ideal gas law
based on the free-stream temperature and a density computed
from the Reynolds number.
Force coefficients computed using free-stream values.

-- Models:
+------------------------------------------------------------------------------+
|          Viscosity Model|        Conductivity Model|              Fluid Model|
+------------------------------------------------------------------------------+
|               SUTHERLAND|          CONSTANT_PRANDTL|             STANDARD_AIR|
+------------------------------------------------------------------------------+
-- Fluid properties:
+------------------------------------------------------------------------------+
|                  Name|    Dim. value|    Ref. value|      Unit|Non-dim. value|
+------------------------------------------------------------------------------+
|        Ref. Viscosity|     1.716e-05|       416.883|   N.s/m^2|   4.11626e-08|
|      Sutherland Temp.|        273.15|        288.16|         K|      0.947911|
|     Sutherland Const.|         110.4|        288.16|         K|       0.38312|
+------------------------------------------------------------------------------+
|        Prandtl (Lam.)|             -|             -|         -|          0.72|
|       Prandtl (Turb.)|             -|             -|         -|           0.9|
+------------------------------------------------------------------------------+
|          Gas Constant|       287.058|       401.881|  N.m/kg.K|      0.714286|
|      Spec. Heat Ratio|             -|             -|         -|           1.4|
+------------------------------------------------------------------------------+
-- Initial and free-stream conditions:
+------------------------------------------------------------------------------+
|                  Name|    Dim. value|    Ref. value|      Unit|Non-dim. value|
+------------------------------------------------------------------------------+
|       Static Pressure|        101333|        141867|        Pa|      0.714286|
|               Density|       1.22504|       1.22504|    kg/m^3|             1|
|           Temperature|        288.16|        288.16|         K|             1|
|          Total Energy|        209130|        115806|   m^2/s^2|       1.80586|
|            Velocity-X|       66.5733|       340.303|       m/s|       0.19563|
|            Velocity-Y|       14.1506|       340.303|       m/s|     0.0415823|
|    Velocity Magnitude|       68.0606|       340.303|       m/s|           0.2|
+------------------------------------------------------------------------------+
|             Viscosity|   1.78935e-05|       416.883|   N.s/m^2|    4.2922e-08|
|          Conductivity|             -|        167537|   W/m^2.K|             -|
|     Turb. Kin. Energy|       17.3709|        115806|   m^2/s^2|       0.00015|
|     Spec. Dissipation|        118926|       340.303|       1/s|       349.471|
+------------------------------------------------------------------------------+
|           Mach Number|             -|             -|         -|           0.2|
|       Reynolds Number|             -|             -|         -|   1.22082e+07|
+------------------------------------------------------------------------------+
Initialize Jacobian structure (Navier-Stokes). MG level: 0.
Initialize Jacobian structure (SST model).

------------------- Numerics Preprocessing ( Zone 0 ) -------------------

----------------- Integration Preprocessing ( Zone 0 ) ------------------

------------------- Iteration Preprocessing ( Zone 0 ) ------------------
Euler/Navier-Stokes/RANS fluid iteration.

------------------------------ Begin Solver -----------------------------

Simulation Run using the Single-zone Driver
WARNING: SU2 was not compiled for an AVX-capable architecture.
+--------------------------------------------------------------------------------------------------------------------+
|  Inner_Iter|    rms[Rho]|   rms[RhoU]|   rms[RhoV]|   rms[RhoE]|          CD|          CL|         CMz|   LinSolRes|
+--------------------------------------------------------------------------------------------------------------------+
|           0|   -3.211485|   -3.727738|   -3.205863|   -2.809441|    0.179019|    2.085871|    0.861704|   -0.991445|
|          25|   -5.866962|   -5.084272|   -5.198527|   -5.412432|    0.187192|    2.156824|    0.892939|   -0.686361|
|          50|   -6.542482|   -5.541011|   -5.914935|   -5.984385|    0.162504|    2.224784|    0.900763|   -0.666508|
|          75|   -6.826163|   -5.887662|   -6.277212|   -6.298929|    0.143935|    2.220698|    0.896792|   -0.639003|
|         100|   -7.175632|   -6.217438|   -6.696354|   -6.684454|    0.147222|    2.204880|    0.891045|   -0.626581|
+-----------------------------------------------------------------------+
|        File Writing Summary       |              Filename             |
+-----------------------------------------------------------------------+
|SU2 binary restart                 |restart.dat                        |
|Paraview                           |vol_solution.vtu                   |
|Paraview surface                   |surface.vtu                        |
+-----------------------------------------------------------------------+
+--------------------------------------------------------------------------------------------------------------------+
|  Inner_Iter|    rms[Rho]|   rms[RhoU]|   rms[RhoV]|   rms[RhoE]|          CD|          CL|         CMz|   LinSolRes|
+--------------------------------------------------------------------------------------------------------------------+
|         125|   -7.380946|   -6.385517|   -6.954796|   -6.847524|    0.149069|    2.214554|    0.894852|   -0.661312|
|         150|   -7.477978|   -6.543898|   -7.135426|   -6.984504|    0.146592|    2.217311|    0.892269|   -0.661611|
|         175|   -7.609253|   -6.750356|   -7.336247|   -7.154095|    0.145619|    2.222817|    0.894980|   -0.594045|
|         200|   -7.760142|   -6.996759|   -7.447220|   -7.334162|    0.144922|    2.225734|    0.895107|   -0.521285|
+-----------------------------------------------------------------------+
|        File Writing Summary       |              Filename             |
+-----------------------------------------------------------------------+
|SU2 binary restart                 |restart.dat                        |
|Paraview                           |vol_solution.vtu                   |
|Paraview surface                   |surface.vtu                        |
+-----------------------------------------------------------------------+
+--------------------------------------------------------------------------------------------------------------------+
|  Inner_Iter|    rms[Rho]|   rms[RhoU]|   rms[RhoV]|   rms[RhoE]|          CD|          CL|         CMz|   LinSolRes|
+--------------------------------------------------------------------------------------------------------------------+
|         225|   -7.799983|   -7.085529|   -7.348716|   -7.405306|    0.145367|    2.229171|    0.897417|   -0.439606|
|         250|   -7.733101|   -7.112427|   -7.363388|   -7.349737|    0.144941|    2.233046|    0.897941|   -0.450478|
|         275|   -7.766279|   -7.116856|   -7.402089|   -7.379084|    0.142899|    2.230862|    0.894888|   -0.370137|
|         300|   -7.777712|   -7.036686|   -7.267365|   -7.360326|    0.142837|    2.234089|    0.896269|   -0.508697|
+-----------------------------------------------------------------------+
|        File Writing Summary       |              Filename             |
+-----------------------------------------------------------------------+
|SU2 binary restart                 |restart.dat                        |
|Paraview                           |vol_solution.vtu                   |
|Paraview surface                   |surface.vtu                        |
+-----------------------------------------------------------------------+
+--------------------------------------------------------------------------------------------------------------------+
|  Inner_Iter|    rms[Rho]|   rms[RhoU]|   rms[RhoV]|   rms[RhoE]|          CD|          CL|         CMz|   LinSolRes|
+--------------------------------------------------------------------------------------------------------------------+
|         325|   -7.782646|   -7.119258|   -7.303078|   -7.388658|    0.142983|    2.237309|    0.897555|   -0.449389|
|         350|   -7.802997|   -7.085126|   -7.280880|   -7.393406|    0.142942|    2.240015|    0.898292|   -0.466389|
|         375|   -7.739854|   -7.140673|   -7.287130|   -7.351357|    0.142552|    2.242490|    0.898671|   -0.478008|
|         400|   -7.974106|   -7.300333|   -7.559721|   -7.604442|    0.141868|    2.244314|    0.898587|   -0.394995|
+-----------------------------------------------------------------------+
|        File Writing Summary       |              Filename             |
+-----------------------------------------------------------------------+
|SU2 binary restart                 |restart.dat                        |
|Paraview                           |vol_solution.vtu                   |
|Paraview surface                   |surface.vtu                        |
+-----------------------------------------------------------------------+
+--------------------------------------------------------------------------------------------------------------------+
|  Inner_Iter|    rms[Rho]|   rms[RhoU]|   rms[RhoV]|   rms[RhoE]|          CD|          CL|         CMz|   LinSolRes|
+--------------------------------------------------------------------------------------------------------------------+
|         425|   -8.019928|   -7.310656|   -7.634298|   -7.611905|    0.141799|    2.247169|    0.899410|   -0.424048|
|         450|   -8.035292|   -7.390089|   -7.771389|   -7.647846|    0.141540|    2.250499|    0.900444|   -0.358520|
|         475|   -8.005100|   -7.394899|   -7.666798|   -7.625003|    0.141321|    2.253468|    0.901229|   -0.356022|
|         500|   -8.027216|   -7.428250|   -7.691640|   -7.660699|    0.140821|    2.255576|    0.901511|   -0.385413|
+-----------------------------------------------------------------------+
|        File Writing Summary       |              Filename             |
+-----------------------------------------------------------------------+
|SU2 binary restart                 |restart.dat                        |
|Paraview                           |vol_solution.vtu                   |
|Paraview surface                   |surface.vtu                        |
+-----------------------------------------------------------------------+
+--------------------------------------------------------------------------------------------------------------------+
|  Inner_Iter|    rms[Rho]|   rms[RhoU]|   rms[RhoV]|   rms[RhoE]|          CD|          CL|         CMz|   LinSolRes|
+--------------------------------------------------------------------------------------------------------------------+
|         525|   -8.134601|   -7.482708|   -7.868275|   -7.769135|    0.140668|    2.258613|    0.902365|   -0.370944|
|         550|   -8.139689|   -7.512236|   -7.944555|   -7.770656|    0.140236|    2.260825|    0.902772|   -0.356230|
|         575|   -8.118611|   -7.493716|   -7.911333|   -7.749628|    0.140189|    2.263916|    0.903700|   -0.349155|
|         600|   -8.065661|   -7.480325|   -7.839976|   -7.694912|    0.139753|    2.266445|    0.904264|   -0.316366|
+-----------------------------------------------------------------------+
|        File Writing Summary       |              Filename             |
+-----------------------------------------------------------------------+
|SU2 binary restart                 |restart.dat                        |
|Paraview                           |vol_solution.vtu                   |
|Paraview surface                   |surface.vtu                        |
+-----------------------------------------------------------------------+
+--------------------------------------------------------------------------------------------------------------------+
|  Inner_Iter|    rms[Rho]|   rms[RhoU]|   rms[RhoV]|   rms[RhoE]|          CD|          CL|         CMz|   LinSolRes|
+--------------------------------------------------------------------------------------------------------------------+
|         625|   -8.109891|   -7.498007|   -7.842329|   -7.750813|    0.139529|    2.268927|    0.904799|   -0.370839|
|         650|   -8.136795|   -7.510754|   -7.934271|   -7.772371|    0.139262|    2.271488|    0.905478|   -0.355133|
|         675|   -8.141419|   -7.532765|   -7.940667|   -7.772760|    0.139027|    2.274112|    0.906095|   -0.347223|
|         700|   -8.155218|   -7.536518|   -7.925533|   -7.792973|    0.138746|    2.276420|    0.906629|   -0.376204|
+-----------------------------------------------------------------------+
|        File Writing Summary       |              Filename             |
+-----------------------------------------------------------------------+
|SU2 binary restart                 |restart.dat                        |
|Paraview                           |vol_solution.vtu                   |
|Paraview surface                   |surface.vtu                        |
+-----------------------------------------------------------------------+
+--------------------------------------------------------------------------------------------------------------------+
|  Inner_Iter|    rms[Rho]|   rms[RhoU]|   rms[RhoV]|   rms[RhoE]|          CD|          CL|         CMz|   LinSolRes|
+--------------------------------------------------------------------------------------------------------------------+
|         725|   -8.134886|   -7.528970|   -7.932443|   -7.768115|    0.138612|    2.279181|    0.907415|   -0.348318|
|         750|   -8.137427|   -7.535571|   -7.905459|   -7.772947|    0.138326|    2.281521|    0.907921|   -0.355252|
|         775|   -8.152270|   -7.538103|   -7.927972|   -7.792336|    0.138184|    2.284052|    0.908620|   -0.370457|
|         800|   -8.149484|   -7.540454|   -7.936930|   -7.785982|    0.138002|    2.286666|    0.909310|   -0.342103|
+-----------------------------------------------------------------------+
|        File Writing Summary       |              Filename             |
+-----------------------------------------------------------------------+
|SU2 binary restart                 |restart.dat                        |
|Paraview                           |vol_solution.vtu                   |
|Paraview surface                   |surface.vtu                        |
+-----------------------------------------------------------------------+
+--------------------------------------------------------------------------------------------------------------------+
|  Inner_Iter|    rms[Rho]|   rms[RhoU]|   rms[RhoV]|   rms[RhoE]|          CD|          CL|         CMz|   LinSolRes|
+--------------------------------------------------------------------------------------------------------------------+
|         825|   -8.154464|   -7.548350|   -7.921871|   -7.792928|    0.137793|    2.289051|    0.909887|   -0.360024|
|         850|   -8.166014|   -7.550700|   -7.942838|   -7.807109|    0.137655|    2.291599|    0.910594|   -0.356378|
|         875|   -8.153886|   -7.553802|   -7.940162|   -7.790955|    0.137499|    2.294103|    0.911259|   -0.342383|
|         900|   -8.163857|   -7.560595|   -7.931014|   -7.804300|    0.137333|    2.296480|    0.911861|   -0.361070|
+-----------------------------------------------------------------------+
|        File Writing Summary       |              Filename             |
+-----------------------------------------------------------------------+
|SU2 binary restart                 |restart.dat                        |
|Paraview                           |vol_solution.vtu                   |
|Paraview surface                   |surface.vtu                        |
+-----------------------------------------------------------------------+
+--------------------------------------------------------------------------------------------------------------------+
|  Inner_Iter|    rms[Rho]|   rms[RhoU]|   rms[RhoV]|   rms[RhoE]|          CD|          CL|         CMz|   LinSolRes|
+--------------------------------------------------------------------------------------------------------------------+
|         925|   -8.167645|   -7.560929|   -7.947744|   -7.808222|    0.137224|    2.298983|    0.912574|   -0.355002|
|         950|   -8.172010|   -7.567779|   -7.945229|   -7.812002|    0.137088|    2.301408|    0.913203|   -0.354789|
|         975|   -8.181033|   -7.573097|   -7.950170|   -7.823657|    0.136971|    2.303749|    0.913836|   -0.369441|
|        1000|   -8.186324|   -7.576519|   -7.963631|   -7.828552|    0.136885|    2.306203|    0.914523|   -0.358422|
+-----------------------------------------------------------------------+
|        File Writing Summary       |              Filename             |
+-----------------------------------------------------------------------+
|SU2 binary restart                 |restart.dat                        |
|Paraview                           |vol_solution.vtu                   |
|Paraview surface                   |surface.vtu                        |
+-----------------------------------------------------------------------+
+--------------------------------------------------------------------------------------------------------------------+
|  Inner_Iter|    rms[Rho]|   rms[RhoU]|   rms[RhoV]|   rms[RhoE]|          CD|          CL|         CMz|   LinSolRes|
+--------------------------------------------------------------------------------------------------------------------+
|        1025|   -8.190403|   -7.583626|   -7.958676|   -7.833004|    0.136778|    2.308515|    0.915136|   -0.364173|
|        1050|   -8.196302|   -7.588043|   -7.966861|   -7.840140|    0.136714|    2.310829|    0.915784|   -0.369283|
|        1075|   -8.199735|   -7.592345|   -7.973148|   -7.842982|    0.136646|    2.313144|    0.916431|   -0.361539|
|        1100|   -8.211568|   -7.599333|   -7.973002|   -7.856863|    0.136588|    2.315349|    0.917026|   -0.367825|
+-----------------------------------------------------------------------+
|        File Writing Summary       |              Filename             |
+-----------------------------------------------------------------------+
|SU2 binary restart                 |restart.dat                        |
|Paraview                           |vol_solution.vtu                   |
|Paraview surface                   |surface.vtu                        |
+-----------------------------------------------------------------------+
+--------------------------------------------------------------------------------------------------------------------+
|  Inner_Iter|    rms[Rho]|   rms[RhoU]|   rms[RhoV]|   rms[RhoE]|          CD|          CL|         CMz|   LinSolRes|
+--------------------------------------------------------------------------------------------------------------------+
|        1125|   -8.219518|   -7.604310|   -7.986668|   -7.865514|    0.136555|    2.317573|    0.917656|   -0.375260|
|        1150|   -8.215845|   -7.610126|   -7.991163|   -7.859085|    0.136532|    2.319737|    0.918258|   -0.369115|
|        1175|   -8.233831|   -7.616751|   -7.999357|   -7.881095|    0.136518|    2.321822|    0.918833|   -0.393136|
|        1200|   -8.242611|   -7.620623|   -8.007838|   -7.891185|    0.136535|    2.323916|    0.919442|   -0.390871|
+-----------------------------------------------------------------------+
|        File Writing Summary       |              Filename             |
+-----------------------------------------------------------------------+
|SU2 binary restart                 |restart.dat                        |
|Paraview                           |vol_solution.vtu                   |
|Paraview surface                   |surface.vtu                        |
+-----------------------------------------------------------------------+
+--------------------------------------------------------------------------------------------------------------------+
|  Inner_Iter|    rms[Rho]|   rms[RhoU]|   rms[RhoV]|   rms[RhoE]|          CD|          CL|         CMz|   LinSolRes|
+--------------------------------------------------------------------------------------------------------------------+
|        1225|   -8.247944|   -7.626142|   -8.008885|   -7.896819|    0.136551|    2.325929|    0.919994|   -0.395148|
|        1250|   -8.265500|   -7.631083|   -8.019884|   -7.918167|    0.136595|    2.327881|    0.920551|   -0.397997|
|        1275|   -8.270233|   -7.635774|   -8.034612|   -7.922178|    0.136658|    2.329807|    0.921103|   -0.416727|
|        1300|   -8.280613|   -7.640881|   -8.042406|   -7.933842|    0.136720|    2.331627|    0.921604|   -0.418848|
+-----------------------------------------------------------------------+
|        File Writing Summary       |              Filename             |
+-----------------------------------------------------------------------+
|SU2 binary restart                 |restart.dat                        |
|Paraview                           |vol_solution.vtu                   |
|Paraview surface                   |surface.vtu                        |
+-----------------------------------------------------------------------+
+--------------------------------------------------------------------------------------------------------------------+
|  Inner_Iter|    rms[Rho]|   rms[RhoU]|   rms[RhoV]|   rms[RhoE]|          CD|          CL|         CMz|   LinSolRes|
+--------------------------------------------------------------------------------------------------------------------+
|        1325|   -8.294207|   -7.644362|   -8.053844|   -7.950188|    0.136812|    2.333406|    0.922114|   -0.439838|
|        1350|   -8.303699|   -7.647232|   -8.059255|   -7.960606|    0.136931|    2.335144|    0.922612|   -0.420313|
|        1375|   -8.306143|   -7.649262|   -8.068040|   -7.962383|    0.137053|    2.336754|    0.923059|   -0.453459|
|        1400|   -8.322171|   -7.651165|   -8.082516|   -7.982156|    0.137212|    2.338365|    0.923525|   -0.475095|
+-----------------------------------------------------------------------+
|        File Writing Summary       |              Filename             |
+-----------------------------------------------------------------------+
|SU2 binary restart                 |restart.dat                        |
|Paraview                           |vol_solution.vtu                   |
|Paraview surface                   |surface.vtu                        |
+-----------------------------------------------------------------------+
+--------------------------------------------------------------------------------------------------------------------+
|  Inner_Iter|    rms[Rho]|   rms[RhoU]|   rms[RhoV]|   rms[RhoE]|          CD|          CL|         CMz|   LinSolRes|
+--------------------------------------------------------------------------------------------------------------------+
|        1425|   -8.338683|   -7.652228|   -8.095459|   -8.001773|    0.137373|    2.339852|    0.923933|   -0.482908|
|        1450|   -8.348639|   -7.652041|   -8.107898|   -8.014219|    0.137562|    2.341265|    0.924332|   -0.513740|
|        1475|   -8.358006|   -7.649786|   -8.119118|   -8.025740|    0.137776|    2.342637|    0.924722|   -0.529485|
|        1500|   -8.366619|   -7.646603|   -8.125216|   -8.036003|    0.138016|    2.343915|    0.925079|   -0.558309|
+-----------------------------------------------------------------------+
|        File Writing Summary       |              Filename             |
+-----------------------------------------------------------------------+
|SU2 binary restart                 |restart.dat                        |
|Paraview                           |vol_solution.vtu                   |
|Paraview surface                   |surface.vtu                        |
+-----------------------------------------------------------------------+
+--------------------------------------------------------------------------------------------------------------------+
|  Inner_Iter|    rms[Rho]|   rms[RhoU]|   rms[RhoV]|   rms[RhoE]|          CD|          CL|         CMz|   LinSolRes|
+--------------------------------------------------------------------------------------------------------------------+
|        1525|   -8.374236|   -7.641651|   -8.133464|   -8.046261|    0.138280|    2.345115|    0.925416|   -0.580220|
|        1550|   -8.380491|   -7.635356|   -8.145222|   -8.054050|    0.138558|    2.346232|    0.925721|   -0.606541|
|        1575|   -8.381126|   -7.627756|   -8.154687|   -8.054198|    0.138875|    2.347256|    0.926005|   -0.625450|
|        1600|   -8.384973|   -7.618537|   -8.165451|   -8.060053|    0.139218|    2.348218|    0.926268|   -0.669739|
+-----------------------------------------------------------------------+
|        File Writing Summary       |              Filename             |
+-----------------------------------------------------------------------+
|SU2 binary restart                 |restart.dat                        |
|Paraview                           |vol_solution.vtu                   |
|Paraview surface                   |surface.vtu                        |
+-----------------------------------------------------------------------+
+--------------------------------------------------------------------------------------------------------------------+
|  Inner_Iter|    rms[Rho]|   rms[RhoU]|   rms[RhoV]|   rms[RhoE]|          CD|          CL|         CMz|   LinSolRes|
+--------------------------------------------------------------------------------------------------------------------+
|        1625|   -8.388253|   -7.607529|   -8.169103|   -8.065764|    0.139580|    2.349056|    0.926494|   -0.690580|
|        1650|   -8.378031|   -7.595418|   -8.169276|   -8.051681|    0.139987|    2.349856|    0.926702|   -0.702336|
|        1675|   -8.375106|   -7.581757|   -8.171350|   -8.050367|    0.140421|    2.350557|    0.926881|   -0.734204|
|        1700|   -8.363730|   -7.566995|   -8.169874|   -8.035937|    0.140899|    2.351187|    0.927048|   -0.749091|
+-----------------------------------------------------------------------+
|        File Writing Summary       |              Filename             |
+-----------------------------------------------------------------------+
|SU2 binary restart                 |restart.dat                        |
|Paraview                           |vol_solution.vtu                   |
|Paraview surface                   |surface.vtu                        |
+-----------------------------------------------------------------------+
+--------------------------------------------------------------------------------------------------------------------+
|  Inner_Iter|    rms[Rho]|   rms[RhoU]|   rms[RhoV]|   rms[RhoE]|          CD|          CL|         CMz|   LinSolRes|
+--------------------------------------------------------------------------------------------------------------------+
|        1725|   -8.359197|   -7.550766|   -8.167904|   -8.032289|    0.141393|    2.351703|    0.927162|   -0.765006|
|        1750|   -8.340016|   -7.532985|   -8.159336|   -8.009111|    0.141957|    2.352143|    0.927270|   -0.744260|
|        1775|   -8.324093|   -7.514241|   -8.151664|   -7.991833|    0.142537|    2.352482|    0.927335|   -0.749000|
|        1800|   -8.306251|   -7.494836|   -8.136884|   -7.971759|    0.143172|    2.352758|    0.927376|   -0.735343|
+-----------------------------------------------------------------------+
|        File Writing Summary       |              Filename             |
+-----------------------------------------------------------------------+
|SU2 binary restart                 |restart.dat                        |
|Paraview                           |vol_solution.vtu                   |
|Paraview surface                   |surface.vtu                        |
+-----------------------------------------------------------------------+
+--------------------------------------------------------------------------------------------------------------------+
|  Inner_Iter|    rms[Rho]|   rms[RhoU]|   rms[RhoV]|   rms[RhoE]|          CD|          CL|         CMz|   LinSolRes|
+--------------------------------------------------------------------------------------------------------------------+
|        1825|   -8.285636|   -7.474368|   -8.121420|   -7.948238|    0.143856|    2.352911|    0.927381|   -0.728633|
|        1850|   -8.254066|   -7.452936|   -8.101209|   -7.911904|    0.144601|    2.352992|    0.927374|   -0.701882|
|        1875|   -8.233686|   -7.430817|   -8.081072|   -7.891195|    0.145393|    2.352979|    0.927321|   -0.695548|
|        1900|   -8.204516|   -7.407736|   -8.057882|   -7.858076|    0.146245|    2.352844|    0.927233|   -0.674621|
+-----------------------------------------------------------------------+
|        File Writing Summary       |              Filename             |
+-----------------------------------------------------------------------+
|SU2 binary restart                 |restart.dat                        |
|Paraview                           |vol_solution.vtu                   |
|Paraview surface                   |surface.vtu                        |
+-----------------------------------------------------------------------+
+--------------------------------------------------------------------------------------------------------------------+
|  Inner_Iter|    rms[Rho]|   rms[RhoU]|   rms[RhoV]|   rms[RhoE]|          CD|          CL|         CMz|   LinSolRes|
+--------------------------------------------------------------------------------------------------------------------+
|        1925|   -8.172384|   -7.383833|   -8.031779|   -7.823693|    0.147168|    2.352630|    0.927120|   -0.664714|
|        1950|   -8.147140|   -7.359353|   -8.006105|   -7.798016|    0.148165|    2.352333|    0.926982|   -0.645147|
|        1975|   -8.116022|   -7.334131|   -7.979764|   -7.764315|    0.149234|    2.351904|    0.926788|   -0.650048|
|        2000|   -8.088232|   -7.308384|   -7.950374|   -7.736629|    0.150407|    2.351408|    0.926590|   -0.633105|
+-----------------------------------------------------------------------+
|        File Writing Summary       |              Filename             |
+-----------------------------------------------------------------------+
|SU2 binary restart                 |restart.dat                        |
|Paraview                           |vol_solution.vtu                   |
|Paraview surface                   |surface.vtu                        |
+-----------------------------------------------------------------------+
+--------------------------------------------------------------------------------------------------------------------+
|  Inner_Iter|    rms[Rho]|   rms[RhoU]|   rms[RhoV]|   rms[RhoE]|          CD|          CL|         CMz|   LinSolRes|
+--------------------------------------------------------------------------------------------------------------------+
|        2025|   -8.056299|   -7.281725|   -7.922091|   -7.703259|    0.151664|    2.350808|    0.926343|   -0.626754|
|        2050|   -8.022140|   -7.254444|   -7.890715|   -7.667960|    0.153019|    2.350082|    0.926048|   -0.612618|
|        2075|   -7.984280|   -7.225862|   -7.858770|   -7.628381|    0.154495|    2.349268|    0.925724|   -0.617521|
|        2100|   -7.953402|   -7.196485|   -7.824593|   -7.598331|    0.156089|    2.348342|    0.925353|   -0.607821|
+-----------------------------------------------------------------------+
|        File Writing Summary       |              Filename             |
+-----------------------------------------------------------------------+
|SU2 binary restart                 |restart.dat                        |
|Paraview                           |vol_solution.vtu                   |
|Paraview surface                   |surface.vtu                        |
+-----------------------------------------------------------------------+
+--------------------------------------------------------------------------------------------------------------------+
|  Inner_Iter|    rms[Rho]|   rms[RhoU]|   rms[RhoV]|   rms[RhoE]|          CD|          CL|         CMz|   LinSolRes|
+--------------------------------------------------------------------------------------------------------------------+
|        2125|   -7.917907|   -7.166600|   -7.791097|   -7.562066|    0.157827|    2.347329|    0.924949|   -0.601965|
|        2150|   -7.880277|   -7.135914|   -7.756539|   -7.524187|    0.159728|    2.346230|    0.924518|   -0.598087|
|        2175|   -7.841242|   -7.103944|   -7.723011|   -7.484686|    0.161799|    2.345032|    0.924034|   -0.608237|
|        2200|   -7.804965|   -7.070660|   -7.683352|   -7.449246|    0.164050|    2.343744|    0.923503|   -0.605365|
+-----------------------------------------------------------------------+
|        File Writing Summary       |              Filename             |
+-----------------------------------------------------------------------+
|SU2 binary restart                 |restart.dat                        |
|Paraview                           |vol_solution.vtu                   |
|Paraview surface                   |surface.vtu                        |
+-----------------------------------------------------------------------+
+--------------------------------------------------------------------------------------------------------------------+
|  Inner_Iter|    rms[Rho]|   rms[RhoU]|   rms[RhoV]|   rms[RhoE]|          CD|          CL|         CMz|   LinSolRes|
+--------------------------------------------------------------------------------------------------------------------+
|        2225|   -7.763504|   -7.036425|   -7.645202|   -7.407863|    0.166509|    2.342366|    0.922925|   -0.602648|
|        2250|   -7.720518|   -7.001132|   -7.604370|   -7.364791|    0.169207|    2.340928|    0.922303|   -0.607511|
|        2275|   -7.685525|   -6.964506|   -7.565857|   -7.332284|    0.172162|    2.339427|    0.921641|   -0.605016|
|        2300|   -7.637598|   -6.926947|   -7.520659|   -7.283903|    0.175373|    2.337927|    0.920955|   -0.618096|
+-----------------------------------------------------------------------+
|        File Writing Summary       |              Filename             |
+-----------------------------------------------------------------------+
|SU2 binary restart                 |restart.dat                        |
|Paraview                           |vol_solution.vtu                   |
|Paraview surface                   |surface.vtu                        |
+-----------------------------------------------------------------------+
+--------------------------------------------------------------------------------------------------------------------+
|  Inner_Iter|    rms[Rho]|   rms[RhoU]|   rms[RhoV]|   rms[RhoE]|          CD|          CL|         CMz|   LinSolRes|
+--------------------------------------------------------------------------------------------------------------------+
|        2325|   -7.590589|   -6.888488|   -7.476116|   -7.237422|    0.178903|    2.336436|    0.920229|   -0.593456|
|        2350|   -7.557172|   -6.849202|   -7.436311|   -7.208537|    0.182771|    2.335049|    0.919480|   -0.669806|
|        2375|   -7.480363|   -6.807720|   -7.381829|   -7.125648|    0.186971|    2.333628|    0.918675|   -0.809538|
|        2400|   -7.438344|   -6.765976|   -7.332029|   -7.084858|    0.191588|    2.332576|    0.917881|   -0.747492|
+-----------------------------------------------------------------------+
|        File Writing Summary       |              Filename             |
+-----------------------------------------------------------------------+
|SU2 binary restart                 |restart.dat                        |
|Paraview                           |vol_solution.vtu                   |
|Paraview surface                   |surface.vtu                        |
+-----------------------------------------------------------------------+
+--------------------------------------------------------------------------------------------------------------------+
|  Inner_Iter|    rms[Rho]|   rms[RhoU]|   rms[RhoV]|   rms[RhoE]|          CD|          CL|         CMz|   LinSolRes|
+--------------------------------------------------------------------------------------------------------------------+
|        2425|   -7.414653|   -6.723737|   -7.288528|   -7.068022|    0.196636|    2.331672|    0.917124|   -0.753814|
|        2450|   -7.368502|   -6.681715|   -7.240626|   -7.023493|    0.202045|    2.330798|    0.916268|   -0.870496|
|        2475|   -7.309865|   -6.636805|   -7.189773|   -6.964263|    0.207968|    2.330663|    0.915670|   -0.771555|
|        2500|   -7.269998|   -6.594859|   -7.141051|   -6.926892|    0.214424|    2.331482|    0.915361|   -0.847373|
+-----------------------------------------------------------------------+
|        File Writing Summary       |              Filename             |
+-----------------------------------------------------------------------+
|SU2 binary restart                 |restart.dat                        |
|Paraview                           |vol_solution.vtu                   |
|Paraview surface                   |surface.vtu                        |
+-----------------------------------------------------------------------+
+--------------------------------------------------------------------------------------------------------------------+
|  Inner_Iter|    rms[Rho]|   rms[RhoU]|   rms[RhoV]|   rms[RhoE]|          CD|          CL|         CMz|   LinSolRes|
+--------------------------------------------------------------------------------------------------------------------+
|        2525|   -7.207640|   -6.551827|   -7.084280|   -6.862859|    0.221364|    2.333240|    0.915454|   -0.789688|
|        2550|   -7.153489|   -6.508346|   -7.022920|   -6.809486|    0.229090|    2.337004|    0.916792|   -0.824392|
|        2575|   -7.096236|   -6.463733|   -6.958575|   -6.751789|    0.237849|    2.344167|    0.920112|   -0.786349|
|        2600|   -7.047972|   -6.420986|   -6.884001|   -6.706765|    0.247931|    2.355966|    0.926391|   -0.783251|
+-----------------------------------------------------------------------+
|        File Writing Summary       |              Filename             |
+-----------------------------------------------------------------------+
|SU2 binary restart                 |restart.dat                        |
|Paraview                           |vol_solution.vtu                   |
|Paraview surface                   |surface.vtu                        |
+-----------------------------------------------------------------------+
+--------------------------------------------------------------------------------------------------------------------+
|  Inner_Iter|    rms[Rho]|   rms[RhoU]|   rms[RhoV]|   rms[RhoE]|          CD|          CL|         CMz|   LinSolRes|
+--------------------------------------------------------------------------------------------------------------------+
|        2625|   -6.990273|   -6.372708|   -6.797072|   -6.650595|    0.259612|    2.374023|    0.936627|   -0.721562|
|        2650|   -6.936630|   -6.324544|   -6.706391|   -6.598497|    0.272996|    2.399523|    0.951691|   -0.758279|
|        2675|   -6.863019|   -6.275352|   -6.613799|   -6.521194|    0.288532|    2.434231|    0.972897|   -0.756907|
|        2700|   -6.807328|   -6.226247|   -6.525516|   -6.467890|    0.307172|    2.480863|    1.002539|   -0.623545|
+-----------------------------------------------------------------------+
|        File Writing Summary       |              Filename             |
+-----------------------------------------------------------------------+
|SU2 binary restart                 |restart.dat                        |
|Paraview                           |vol_solution.vtu                   |
|Paraview surface                   |surface.vtu                        |
+-----------------------------------------------------------------------+
+--------------------------------------------------------------------------------------------------------------------+
|  Inner_Iter|    rms[Rho]|   rms[RhoU]|   rms[RhoV]|   rms[RhoE]|          CD|          CL|         CMz|   LinSolRes|
+--------------------------------------------------------------------------------------------------------------------+
|        2725|   -6.762627|   -6.179743|   -6.438880|   -6.429759|    0.328555|    2.539904|    1.040967|   -0.753597|
|        2750|   -6.734079|   -6.140557|   -6.373627|   -6.413467|    0.352440|    2.608591|    1.087551|   -0.807385|
|        2775|   -6.696941|   -6.102870|   -6.308925|   -6.384099|    0.380063|    2.689263|    1.145086|   -0.826926|
|        2800|   -6.659533|   -6.064181|   -6.244759|   -6.353727|    0.411576|    2.781144|    1.214124|   -0.842787|
+-----------------------------------------------------------------------+
|        File Writing Summary       |              Filename             |
+-----------------------------------------------------------------------+
|SU2 binary restart                 |restart.dat                        |
|Paraview                           |vol_solution.vtu                   |
|Paraview surface                   |surface.vtu                        |
+-----------------------------------------------------------------------+
+--------------------------------------------------------------------------------------------------------------------+
|  Inner_Iter|    rms[Rho]|   rms[RhoU]|   rms[RhoV]|   rms[RhoE]|          CD|          CL|         CMz|   LinSolRes|
+--------------------------------------------------------------------------------------------------------------------+
|        2825|   -6.626984|   -6.026563|   -6.188796|   -6.328796|    0.444924|    2.875663|    1.290459|   -0.843695|
|        2850|   -6.593086|   -5.982750|   -6.141411|   -6.298900|    0.479432|    2.965311|    1.372068|   -0.817602|
|        2875|   -6.556003|   -5.924675|   -6.102104|   -6.259944|    0.515198|    3.040908|    1.456497|   -0.808844|
|        2900|   -6.518864|   -5.834916|   -6.059755|   -6.216450|    0.554385|    3.088495|    1.538650|   -0.782742|
+-----------------------------------------------------------------------+
|        File Writing Summary       |              Filename             |
+-----------------------------------------------------------------------+
|SU2 binary restart                 |restart.dat                        |
|Paraview                           |vol_solution.vtu                   |
|Paraview surface                   |surface.vtu                        |
+-----------------------------------------------------------------------+
+--------------------------------------------------------------------------------------------------------------------+
|  Inner_Iter|    rms[Rho]|   rms[RhoU]|   rms[RhoV]|   rms[RhoE]|          CD|          CL|         CMz|   LinSolRes|
+--------------------------------------------------------------------------------------------------------------------+
|        2925|   -6.445792|   -5.697712|   -5.956963|   -6.124974|    0.589951|    3.057241|    1.583275|   -0.756679|
|        2950|   -6.221083|   -5.469892|   -5.718509|   -5.867231|    0.580117|    2.793142|    1.493316|   -0.671767|
|        2975|   -5.951380|   -5.176303|   -5.384549|   -5.589982|    0.441101|    2.135718|    1.145491|   -0.694493|
|        3000|   -5.688166|   -4.912018|   -5.138515|   -5.316098|    0.306238|    1.313779|    0.750413|   -0.674946|
+-----------------------------------------------------------------------+
|        File Writing Summary       |              Filename             |
+-----------------------------------------------------------------------+
|SU2 binary restart                 |restart.dat                        |
|Paraview                           |vol_solution.vtu                   |
|Paraview surface                   |surface.vtu                        |
+-----------------------------------------------------------------------+
+--------------------------------------------------------------------------------------------------------------------+
|  Inner_Iter|    rms[Rho]|   rms[RhoU]|   rms[RhoV]|   rms[RhoE]|          CD|          CL|         CMz|   LinSolRes|
+--------------------------------------------------------------------------------------------------------------------+
|        3025|   -5.609244|   -4.828323|   -5.041098|   -5.223706|    0.279380|    0.976894|    0.626640|   -0.727145|
|        3050|   -5.579878|   -4.760771|   -4.846975|   -5.141666|    0.398140|    1.225642|    0.854231|   -0.859080|
|        3075|   -5.173336|   -4.533870|   -4.599766|   -4.785028|    0.408474|    1.224767|    0.820049|   -0.761437|
|        3100|   -4.999339|   -4.280363|   -4.448301|   -4.601104|    0.077337|    0.152818|    0.070953|   -0.705794|
+-----------------------------------------------------------------------+
|        File Writing Summary       |              Filename             |
+-----------------------------------------------------------------------+
|SU2 binary restart                 |restart.dat                        |
|Paraview                           |vol_solution.vtu                   |
|Paraview surface                   |surface.vtu                        |
+-----------------------------------------------------------------------+
+--------------------------------------------------------------------------------------------------------------------+
|  Inner_Iter|    rms[Rho]|   rms[RhoU]|   rms[RhoV]|   rms[RhoE]|          CD|          CL|         CMz|   LinSolRes|
+--------------------------------------------------------------------------------------------------------------------+
|        3125|   -4.968232|   -4.314559|   -4.471893|   -4.568652|    0.513953|    1.556116|    1.023502|   -0.602809|
|        3150|   -5.169151|   -4.513946|   -4.603477|   -4.758307|    0.277191|    1.058441|    0.576900|   -0.793001|
|        3175|   -5.379022|   -4.767340|   -4.873059|   -4.934649|    0.351437|    1.274113|    0.714435|   -0.600034|
|        3200|   -5.910395|   -5.315554|   -5.420954|   -5.472879|    0.364476|    1.421887|    0.754660|   -0.611078|
+-----------------------------------------------------------------------+
|        File Writing Summary       |              Filename             |
+-----------------------------------------------------------------------+
|SU2 binary restart                 |restart.dat                        |
|Paraview                           |vol_solution.vtu                   |
|Paraview surface                   |surface.vtu                        |
+-----------------------------------------------------------------------+
+--------------------------------------------------------------------------------------------------------------------+
|  Inner_Iter|    rms[Rho]|   rms[RhoU]|   rms[RhoV]|   rms[RhoE]|          CD|          CL|         CMz|   LinSolRes|
+--------------------------------------------------------------------------------------------------------------------+
|        3225|   -6.114877|   -5.386809|   -5.618242|   -5.736280|    0.361073|    1.507299|    0.780015|   -0.671379|
|        3250|   -6.150140|   -5.526965|   -5.647901|   -5.739803|    0.311265|    1.436848|    0.715318|   -0.573801|
|        3275|   -6.366966|   -5.720461|   -5.869982|   -5.998025|    0.363750|    1.518175|    0.784114|   -0.562838|
|        3300|   -6.399647|   -5.648360|   -5.854289|   -5.998690|    0.351146|    1.551839|    0.787092|   -0.675183|
+-----------------------------------------------------------------------+
|        File Writing Summary       |              Filename             |
+-----------------------------------------------------------------------+
|SU2 binary restart                 |restart.dat                        |
|Paraview                           |vol_solution.vtu                   |
|Paraview surface                   |surface.vtu                        |
+-----------------------------------------------------------------------+
+--------------------------------------------------------------------------------------------------------------------+
|  Inner_Iter|    rms[Rho]|   rms[RhoU]|   rms[RhoV]|   rms[RhoE]|          CD|          CL|         CMz|   LinSolRes|
+--------------------------------------------------------------------------------------------------------------------+
|        3325|   -6.353593|   -5.593297|   -5.775684|   -5.919125|    0.349199|    1.525874|    0.777033|   -0.673799|
|        3350|   -6.540935|   -5.749633|   -5.969745|   -6.124907|    0.404523|    1.670114|    0.883819|   -0.673720|
|        3375|   -6.528803|   -5.884527|   -6.075934|   -6.147539|    0.379032|    1.596749|    0.841856|   -0.847498|
|        3400|   -6.543706|   -5.781253|   -6.065420|   -6.174007|    0.412638|    1.616294|    0.887075|   -0.697745|
+-----------------------------------------------------------------------+
|        File Writing Summary       |              Filename             |
+-----------------------------------------------------------------------+
|SU2 binary restart                 |restart.dat                        |
|Paraview                           |vol_solution.vtu                   |
|Paraview surface                   |surface.vtu                        |
+-----------------------------------------------------------------------+
+--------------------------------------------------------------------------------------------------------------------+
|  Inner_Iter|    rms[Rho]|   rms[RhoU]|   rms[RhoV]|   rms[RhoE]|          CD|          CL|         CMz|   LinSolRes|
+--------------------------------------------------------------------------------------------------------------------+
|        3425|   -6.416551|   -5.668686|   -5.917989|   -6.079071|    0.356305|    1.406868|    0.756427|   -0.758510|
|        3450|   -6.310583|   -5.567462|   -5.738141|   -5.947822|    0.362455|    1.343460|    0.758205|   -0.655650|
|        3475|   -6.310932|   -5.505198|   -5.635608|   -5.926159|    0.359848|    1.285524|    0.730865|   -0.607711|
|        3500|   -6.234867|   -5.368371|   -5.552522|   -5.779795|    0.339061|    1.181337|    0.683049|   -0.677285|
+-----------------------------------------------------------------------+
|        File Writing Summary       |              Filename             |
+-----------------------------------------------------------------------+
|SU2 binary restart                 |restart.dat                        |
|Paraview                           |vol_solution.vtu                   |
|Paraview surface                   |surface.vtu                        |
+-----------------------------------------------------------------------+
+--------------------------------------------------------------------------------------------------------------------+
|  Inner_Iter|    rms[Rho]|   rms[RhoU]|   rms[RhoV]|   rms[RhoE]|          CD|          CL|         CMz|   LinSolRes|
+--------------------------------------------------------------------------------------------------------------------+
|        3525|   -6.325901|   -5.377010|   -5.550801|   -5.881249|    0.339548|    1.149288|    0.675396|   -0.868648|
|        3550|   -6.359479|   -5.456086|   -5.608886|   -5.966229|    0.355486|    1.199850|    0.704604|   -0.815411|
|        3575|   -6.321858|   -5.613934|   -5.712268|   -5.926031|    0.321402|    1.120576|    0.644256|   -0.708328|
|        3600|   -6.320941|   -5.598681|   -5.768804|   -5.910255|    0.346514|    1.187852|    0.688992|   -0.874918|
+-----------------------------------------------------------------------+
|        File Writing Summary       |              Filename             |
+-----------------------------------------------------------------------+
|SU2 binary restart                 |restart.dat                        |
|Paraview                           |vol_solution.vtu                   |
|Paraview surface                   |surface.vtu                        |
+-----------------------------------------------------------------------+
+--------------------------------------------------------------------------------------------------------------------+
|  Inner_Iter|    rms[Rho]|   rms[RhoU]|   rms[RhoV]|   rms[RhoE]|          CD|          CL|         CMz|   LinSolRes|
+--------------------------------------------------------------------------------------------------------------------+
|        3625|   -6.297313|   -5.508821|   -5.672283|   -5.908453|    0.347156|    1.245731|    0.708571|   -0.582214|
|        3650|   -6.255973|   -5.471739|   -5.622166|   -5.874976|    0.324864|    1.197982|    0.662709|   -0.646798|
|        3675|   -6.229973|   -5.429316|   -5.600452|   -5.794277|    0.352244|    1.301414|    0.727183|   -0.840508|
|        3700|   -6.333746|   -5.624773|   -5.755778|   -5.884686|    0.335297|    1.314134|    0.710121|   -0.758021|
+-----------------------------------------------------------------------+
|        File Writing Summary       |              Filename             |
+-----------------------------------------------------------------------+
|SU2 binary restart                 |restart.dat                        |
|Paraview                           |vol_solution.vtu                   |
|Paraview surface                   |surface.vtu                        |
+-----------------------------------------------------------------------+
+--------------------------------------------------------------------------------------------------------------------+
|  Inner_Iter|    rms[Rho]|   rms[RhoU]|   rms[RhoV]|   rms[RhoE]|          CD|          CL|         CMz|   LinSolRes|
+--------------------------------------------------------------------------------------------------------------------+
|        3725|   -6.744620|   -6.078041|   -6.244885|   -6.302613|    0.352629|    1.394245|    0.751730|   -0.659821|
|        3750|   -6.993273|   -6.262510|   -6.616718|   -6.642720|    0.346308|    1.409602|    0.749406|   -0.590020|
|        3775|   -7.032225|   -6.295924|   -6.579909|   -6.710256|    0.353185|    1.444055|    0.765471|   -0.633828|
|        3800|   -7.052308|   -6.298470|   -6.596582|   -6.674778|    0.357135|    1.477985|    0.782111|   -0.548629|
+-----------------------------------------------------------------------+
|        File Writing Summary       |              Filename             |
+-----------------------------------------------------------------------+
|SU2 binary restart                 |restart.dat                        |
|Paraview                           |vol_solution.vtu                   |
|Paraview surface                   |surface.vtu                        |
+-----------------------------------------------------------------------+
+--------------------------------------------------------------------------------------------------------------------+
|  Inner_Iter|    rms[Rho]|   rms[RhoU]|   rms[RhoV]|   rms[RhoE]|          CD|          CL|         CMz|   LinSolRes|
+--------------------------------------------------------------------------------------------------------------------+
|        3825|   -7.039065|   -6.336346|   -6.557210|   -6.674112|    0.358831|    1.487661|    0.786398|   -0.666949|
|        3850|   -7.202228|   -6.402205|   -6.694404|   -6.811015|    0.367592|    1.513234|    0.805144|   -0.565811|
|        3875|   -7.170754|   -6.416436|   -6.717064|   -6.828631|    0.367957|    1.511579|    0.806809|   -0.761384|
|        3900|   -7.136329|   -6.323785|   -6.599135|   -6.782912|    0.369695|    1.496870|    0.804143|   -0.650485|
+-----------------------------------------------------------------------+
|        File Writing Summary       |              Filename             |
+-----------------------------------------------------------------------+
|SU2 binary restart                 |restart.dat                        |
|Paraview                           |vol_solution.vtu                   |
|Paraview surface                   |surface.vtu                        |
+-----------------------------------------------------------------------+
+--------------------------------------------------------------------------------------------------------------------+
|  Inner_Iter|    rms[Rho]|   rms[RhoU]|   rms[RhoV]|   rms[RhoE]|          CD|          CL|         CMz|   LinSolRes|
+--------------------------------------------------------------------------------------------------------------------+
|        3925|   -7.069408|   -6.345466|   -6.540811|   -6.722605|    0.370467|    1.482223|    0.803201|   -0.806166|
|        3950|   -7.143374|   -6.326097|   -6.660445|   -6.861617|    0.367968|    1.451758|    0.791409|   -0.816060|
|        3975|   -7.003695|   -6.243685|   -6.512437|   -6.657451|    0.363007|    1.409641|    0.773830|   -0.574647|
|        4000|   -7.019424|   -6.280114|   -6.454010|   -6.681412|    0.364787|    1.389642|    0.771705|   -0.824878|
+-----------------------------------------------------------------------+
|        File Writing Summary       |              Filename             |
+-----------------------------------------------------------------------+
|SU2 binary restart                 |restart.dat                        |
|Paraview                           |vol_solution.vtu                   |
|Paraview surface                   |surface.vtu                        |
+-----------------------------------------------------------------------+
+--------------------------------------------------------------------------------------------------------------------+
|  Inner_Iter|    rms[Rho]|   rms[RhoU]|   rms[RhoV]|   rms[RhoE]|          CD|          CL|         CMz|   LinSolRes|
+--------------------------------------------------------------------------------------------------------------------+
|        4025|   -7.138458|   -6.243924|   -6.567894|   -6.739885|    0.358193|    1.350804|    0.752143|   -0.795655|
|        4050|   -7.098235|   -6.304369|   -6.590490|   -6.760991|    0.354978|    1.319507|    0.739150|   -0.624515|
|        4075|   -7.056669|   -6.335174|   -6.570883|   -6.715005|    0.354010|    1.309200|    0.735828|   -0.610427|
|        4100|   -7.142056|   -6.397051|   -6.701124|   -6.753746|    0.348731|    1.286171|    0.721318|   -0.722497|
+-----------------------------------------------------------------------+
|        File Writing Summary       |              Filename             |
+-----------------------------------------------------------------------+
|SU2 binary restart                 |restart.dat                        |
|Paraview                           |vol_solution.vtu                   |
|Paraview surface                   |surface.vtu                        |
+-----------------------------------------------------------------------+
+--------------------------------------------------------------------------------------------------------------------+
|  Inner_Iter|    rms[Rho]|   rms[RhoU]|   rms[RhoV]|   rms[RhoE]|          CD|          CL|         CMz|   LinSolRes|
+--------------------------------------------------------------------------------------------------------------------+
|        4125|   -7.205906|   -6.444973|   -6.752038|   -6.877613|    0.349862|    1.291251|    0.724482|   -0.616583|
|        4150|   -7.173362|   -6.440989|   -6.677408|   -6.809803|    0.348664|    1.296945|    0.723965|   -0.744059|
|        4175|   -7.305519|   -6.579971|   -6.817697|   -6.994987|    0.347833|    1.304558|    0.723893|   -0.631613|
|        4200|   -7.313372|   -6.559110|   -6.858833|   -6.979794|    0.349472|    1.327132|    0.732436|   -0.611223|
+-----------------------------------------------------------------------+
|        File Writing Summary       |              Filename             |
+-----------------------------------------------------------------------+
|SU2 binary restart                 |restart.dat                        |
|Paraview                           |vol_solution.vtu                   |
|Paraview surface                   |surface.vtu                        |
+-----------------------------------------------------------------------+
+--------------------------------------------------------------------------------------------------------------------+
|  Inner_Iter|    rms[Rho]|   rms[RhoU]|   rms[RhoV]|   rms[RhoE]|          CD|          CL|         CMz|   LinSolRes|
+--------------------------------------------------------------------------------------------------------------------+
|        4225|   -7.230038|   -6.607321|   -6.812372|   -6.867838|    0.348410|    1.338097|    0.733252|   -0.698606|
|        4250|   -7.370772|   -6.575389|   -6.955973|   -7.035222|    0.350973|    1.360958|    0.742720|   -0.677664|
|        4275|   -7.341621|   -6.574159|   -6.900914|   -7.014765|    0.351290|    1.378286|    0.748015|   -0.615977|
|        4300|   -7.356723|   -6.612208|   -6.900334|   -7.048044|    0.351850|    1.390781|    0.751746|   -0.726057|
+-----------------------------------------------------------------------+
|        File Writing Summary       |              Filename             |
+-----------------------------------------------------------------------+
|SU2 binary restart                 |restart.dat                        |
|Paraview                           |vol_solution.vtu                   |
|Paraview surface                   |surface.vtu                        |
+-----------------------------------------------------------------------+
+--------------------------------------------------------------------------------------------------------------------+
|  Inner_Iter|    rms[Rho]|   rms[RhoU]|   rms[RhoV]|   rms[RhoE]|          CD|          CL|         CMz|   LinSolRes|
+--------------------------------------------------------------------------------------------------------------------+
|        4325|   -7.391697|   -6.580737|   -6.945393|   -7.044880|    0.355171|    1.411435|    0.762177|   -0.644824|
|        4350|   -7.310009|   -6.575023|   -6.853077|   -6.962244|    0.356334|    1.423583|    0.767115|   -0.609869|
|        4375|   -7.384412|   -6.619259|   -6.884151|   -7.059883|    0.356721|    1.428234|    0.768767|   -0.692440|
|        4400|   -7.399385|   -6.688341|   -6.961018|   -7.015603|    0.358813|    1.436734|    0.774522|   -0.720404|
+-----------------------------------------------------------------------+
|        File Writing Summary       |              Filename             |
+-----------------------------------------------------------------------+
|SU2 binary restart                 |restart.dat                        |
|Paraview                           |vol_solution.vtu                   |
|Paraview surface                   |surface.vtu                        |
+-----------------------------------------------------------------------+
+--------------------------------------------------------------------------------------------------------------------+
|  Inner_Iter|    rms[Rho]|   rms[RhoU]|   rms[RhoV]|   rms[RhoE]|          CD|          CL|         CMz|   LinSolRes|
+--------------------------------------------------------------------------------------------------------------------+
|        4425|   -7.496441|   -6.827953|   -7.177044|   -7.170276|    0.359223|    1.436506|    0.775182|   -0.670791|
|        4450|   -7.455902|   -6.861093|   -7.180625|   -7.093169|    0.360036|    1.433226|    0.775545|   -0.673421|
|        4475|   -7.571461|   -6.896258|   -7.185519|   -7.230494|    0.360749|    1.428815|    0.775904|   -0.730967|
|        4500|   -7.555797|   -6.787465|   -7.126766|   -7.234063|    0.359656|    1.416497|    0.771102|   -0.612168|
+-----------------------------------------------------------------------+
|        File Writing Summary       |              Filename             |
+-----------------------------------------------------------------------+
|SU2 binary restart                 |restart.dat                        |
|Paraview                           |vol_solution.vtu                   |
|Paraview surface                   |surface.vtu                        |
+-----------------------------------------------------------------------+
+--------------------------------------------------------------------------------------------------------------------+
|  Inner_Iter|    rms[Rho]|   rms[RhoU]|   rms[RhoV]|   rms[RhoE]|          CD|          CL|         CMz|   LinSolRes|
+--------------------------------------------------------------------------------------------------------------------+
|        4525|   -7.443050|   -6.734534|   -6.977619|   -7.095374|    0.359283|    1.405266|    0.767858|   -0.614067|
|        4550|   -7.468642|   -6.774463|   -7.030979|   -7.146682|    0.358416|    1.393705|    0.763904|   -0.699223|
|        4575|   -7.529339|   -6.740614|   -7.120231|   -7.201706|    0.356427|    1.378343|    0.757047|   -0.575982|
|        4600|   -7.487361|   -6.767261|   -7.059147|   -7.160129|    0.355596|    1.367573|    0.753171|   -0.629478|
+-----------------------------------------------------------------------+
|        File Writing Summary       |              Filename             |
+-----------------------------------------------------------------------+
|SU2 binary restart                 |restart.dat                        |
|Paraview                           |vol_solution.vtu                   |
|Paraview surface                   |surface.vtu                        |
+-----------------------------------------------------------------------+
+--------------------------------------------------------------------------------------------------------------------+
|  Inner_Iter|    rms[Rho]|   rms[RhoU]|   rms[RhoV]|   rms[RhoE]|          CD|          CL|         CMz|   LinSolRes|
+--------------------------------------------------------------------------------------------------------------------+
|        4625|   -7.574224|   -6.783841|   -7.120110|   -7.261789|    0.354614|    1.359357|    0.749709|   -0.616872|
|        4650|   -7.553803|   -6.821829|   -7.224421|   -7.198259|    0.352984|    1.350297|    0.744772|   -0.534175|
|        4675|   -7.588498|   -6.879370|   -7.257128|   -7.271858|    0.352587|    1.347635|    0.743535|   -0.614496|
|        4700|   -7.566032|   -6.902304|   -7.231729|   -7.217185|    0.352069|    1.347527|    0.742681|   -0.718976|
+-----------------------------------------------------------------------+
|        File Writing Summary       |              Filename             |
+-----------------------------------------------------------------------+
|SU2 binary restart                 |restart.dat                        |
|Paraview                           |vol_solution.vtu                   |
|Paraview surface                   |surface.vtu                        |
+-----------------------------------------------------------------------+
+--------------------------------------------------------------------------------------------------------------------+
|  Inner_Iter|    rms[Rho]|   rms[RhoU]|   rms[RhoV]|   rms[RhoE]|          CD|          CL|         CMz|   LinSolRes|
+--------------------------------------------------------------------------------------------------------------------+
|        4725|   -7.662455|   -6.984113|   -7.256350|   -7.316644|    0.351419|    1.347976|    0.741624|   -0.572408|
|        4750|   -7.537143|   -6.999895|   -7.335587|   -7.169072|    0.351693|    1.353173|    0.743399|   -0.581192|
|        4775|   -7.690018|   -7.000574|   -7.273318|   -7.348218|    0.351568|    1.358656|    0.744579|   -0.486879|
|        4800|   -7.691328|   -7.025847|   -7.301792|   -7.359953|    0.351640|    1.364548|    0.746090|   -0.442625|
+-----------------------------------------------------------------------+
|        File Writing Summary       |              Filename             |
+-----------------------------------------------------------------------+
|SU2 binary restart                 |restart.dat                        |
|Paraview                           |vol_solution.vtu                   |
|Paraview surface                   |surface.vtu                        |
+-----------------------------------------------------------------------+
+--------------------------------------------------------------------------------------------------------------------+
|  Inner_Iter|    rms[Rho]|   rms[RhoU]|   rms[RhoV]|   rms[RhoE]|          CD|          CL|         CMz|   LinSolRes|
+--------------------------------------------------------------------------------------------------------------------+
|        4825|   -7.657723|   -6.966670|   -7.340598|   -7.308470|    0.352414|    1.373266|    0.749566|   -0.597753|
|        4850|   -7.617303|   -6.961444|   -7.262518|   -7.264577|    0.352682|    1.380443|    0.751825|   -0.642325|
|        4875|   -7.647560|   -6.984511|   -7.305461|   -7.305713|    0.353125|    1.386925|    0.754121|   -0.531118|
|        4900|   -7.705709|   -6.997397|   -7.435868|   -7.355955|    0.353838|    1.394061|    0.757176|   -0.461986|
+-----------------------------------------------------------------------+
|        File Writing Summary       |              Filename             |
+-----------------------------------------------------------------------+
|SU2 binary restart                 |restart.dat                        |
|Paraview                           |vol_solution.vtu                   |
|Paraview surface                   |surface.vtu                        |
+-----------------------------------------------------------------------+
+--------------------------------------------------------------------------------------------------------------------+
|  Inner_Iter|    rms[Rho]|   rms[RhoU]|   rms[RhoV]|   rms[RhoE]|          CD|          CL|         CMz|   LinSolRes|
+--------------------------------------------------------------------------------------------------------------------+
|        4925|   -7.708239|   -7.045752|   -7.449788|   -7.364359|    0.354206|    1.398955|    0.759029|   -0.515763|
|        4950|   -7.771630|   -7.080166|   -7.495412|   -7.440513|    0.354745|    1.402820|    0.760863|   -0.367361|
[...]
|  Inner_Iter|    rms[Rho]|   rms[RhoU]|   rms[RhoV]|   rms[RhoE]|          CD|          CL|         CMz|   LinSolRes|
+--------------------------------------------------------------------------------------------------------------------+
|       23625|   -7.893333|   -7.247255|   -7.699980|   -7.514667|    0.181273|    1.966540|    0.829819|   -0.358718|
|       23650|   -7.901088|   -7.247356|   -7.709053|   -7.522735|    0.180561|    1.970460|    0.830636|   -0.330848|
|       23675|   -7.913013|   -7.246072|   -7.695580|   -7.537102|    0.179863|    1.974383|    0.831464|   -0.331294|
|       23700|   -7.882642|   -7.246429|   -7.685261|   -7.503477|    0.179124|    1.978251|    0.832220|   -0.356526|
+-----------------------------------------------------------------------+
|        File Writing Summary       |              Filename             |
+-----------------------------------------------------------------------+
|SU2 binary restart                 |restart.dat                        |
|Paraview                           |vol_solution.vtu                   |
|Paraview surface                   |surface.vtu                        |
+-----------------------------------------------------------------------+
+--------------------------------------------------------------------------------------------------------------------+
|  Inner_Iter|    rms[Rho]|   rms[RhoU]|   rms[RhoV]|   rms[RhoE]|          CD|          CL|         CMz|   LinSolRes|
+--------------------------------------------------------------------------------------------------------------------+
|       23725|   -7.900672|   -7.250679|   -7.706025|   -7.522644|    0.178386|    1.982078|    0.832977|   -0.338739|
|       23750|   -7.869328|   -7.248973|   -7.706547|   -7.487795|    0.177684|    1.986018|    0.833809|   -0.355258|
|       23775|   -7.913591|   -7.251357|   -7.697280|   -7.537408|    0.176961|    1.989909|    0.834598|   -0.340407|
|       23800|   -7.893000|   -7.250596|   -7.690584|   -7.514818|    0.176268|    1.993817|    0.835416|   -0.366400|
+-----------------------------------------------------------------------+
|        File Writing Summary       |              Filename             |
+-----------------------------------------------------------------------+
|SU2 binary restart                 |restart.dat                        |
|Paraview                           |vol_solution.vtu                   |
|Paraview surface                   |surface.vtu                        |
+-----------------------------------------------------------------------+
+--------------------------------------------------------------------------------------------------------------------+
|  Inner_Iter|    rms[Rho]|   rms[RhoU]|   rms[RhoV]|   rms[RhoE]|          CD|          CL|         CMz|   LinSolRes|
+--------------------------------------------------------------------------------------------------------------------+
|       23825|   -7.885315|   -7.249862|   -7.698543|   -7.505548|    0.175561|    1.997729|    0.836234|   -0.335173|
|       23850|   -7.895294|   -7.252176|   -7.698816|   -7.516784|    0.174839|    2.001631|    0.837025|   -0.333274|
|       23875|   -7.892917|   -7.252463|   -7.702287|   -7.514913|    0.174155|    2.005626|    0.837898|   -0.353075|
|       23900|   -7.897026|   -7.251483|   -7.690459|   -7.519739|    0.173480|    2.009702|    0.838804|   -0.335071|
+-----------------------------------------------------------------------+
|        File Writing Summary       |              Filename             |
+-----------------------------------------------------------------------+
|SU2 binary restart                 |restart.dat                        |
|Paraview                           |vol_solution.vtu                   |
|Paraview surface                   |surface.vtu                        |
+-----------------------------------------------------------------------+
+--------------------------------------------------------------------------------------------------------------------+
|  Inner_Iter|    rms[Rho]|   rms[RhoU]|   rms[RhoV]|   rms[RhoE]|          CD|          CL|         CMz|   LinSolRes|
+--------------------------------------------------------------------------------------------------------------------+
|       23925|   -7.892372|   -7.253050|   -7.687658|   -7.515273|    0.172777|    2.013646|    0.839624|   -0.323880|
|       23950|   -7.896534|   -7.255442|   -7.690410|   -7.519555|    0.172074|    2.017546|    0.840440|   -0.340146|
|       23975|   -7.876804|   -7.257193|   -7.710004|   -7.497075|    0.171406|    2.021545|    0.841324|   -0.367761|
|       24000|   -7.893102|   -7.255958|   -7.698828|   -7.515262|    0.170737|    2.025585|    0.842224|   -0.343167|
+-----------------------------------------------------------------------+
|        File Writing Summary       |              Filename             |
+-----------------------------------------------------------------------+
|SU2 binary restart                 |restart.dat                        |
|Paraview                           |vol_solution.vtu                   |
|Paraview surface                   |surface.vtu                        |
+-----------------------------------------------------------------------+
+--------------------------------------------------------------------------------------------------------------------+
|  Inner_Iter|    rms[Rho]|   rms[RhoU]|   rms[RhoV]|   rms[RhoE]|          CD|          CL|         CMz|   LinSolRes|
+--------------------------------------------------------------------------------------------------------------------+
|       24025|   -7.898249|   -7.257893|   -7.686027|   -7.521847|    0.170047|    2.029598|    0.843085|   -0.352650|
|       24050|   -7.898328|   -7.260105|   -7.695202|   -7.521192|    0.169348|    2.033589|    0.843940|   -0.343758|
|       24075|   -7.901846|   -7.261581|   -7.705287|   -7.524494|    0.168679|    2.037641|    0.844846|   -0.346687|
|       24100|   -7.900356|   -7.262544|   -7.700332|   -7.523063|    0.168001|    2.041672|    0.845729|   -0.324426|
+-----------------------------------------------------------------------+
|        File Writing Summary       |              Filename             |
+-----------------------------------------------------------------------+
|SU2 binary restart                 |restart.dat                        |
|Paraview                           |vol_solution.vtu                   |
|Paraview surface                   |surface.vtu                        |
+-----------------------------------------------------------------------+
+--------------------------------------------------------------------------------------------------------------------+
|  Inner_Iter|    rms[Rho]|   rms[RhoU]|   rms[RhoV]|   rms[RhoE]|          CD|          CL|         CMz|   LinSolRes|
+--------------------------------------------------------------------------------------------------------------------+
|       24125|   -7.901467|   -7.262410|   -7.695067|   -7.524934|    0.167349|    2.045706|    0.846643|   -0.342057|
|       24150|   -7.884669|   -7.261145|   -7.692381|   -7.506339|    0.166706|    2.049845|    0.847604|   -0.346104|
|       24175|   -7.902930|   -7.264806|   -7.690425|   -7.526670|    0.166017|    2.053861|    0.848466|   -0.337383|
|       24200|   -7.905082|   -7.268077|   -7.704943|   -7.528677|    0.165361|    2.057915|    0.849382|   -0.342594|
+-----------------------------------------------------------------------+
|        File Writing Summary       |              Filename             |
+-----------------------------------------------------------------------+
|SU2 binary restart                 |restart.dat                        |
|Paraview                           |vol_solution.vtu                   |
|Paraview surface                   |surface.vtu                        |
+-----------------------------------------------------------------------+
+--------------------------------------------------------------------------------------------------------------------+
|  Inner_Iter|    rms[Rho]|   rms[RhoU]|   rms[RhoV]|   rms[RhoE]|          CD|          CL|         CMz|   LinSolRes|
+--------------------------------------------------------------------------------------------------------------------+
|       24225|   -7.911713|   -7.267670|   -7.706297|   -7.536287|    0.164731|    2.062073|    0.850371|   -0.332017|
|       24250|   -7.897635|   -7.266443|   -7.689652|   -7.521407|    0.164096|    2.066210|    0.851332|   -0.333266|
|       24275|   -7.908814|   -7.268224|   -7.685484|   -7.534399|    0.163443|    2.070314|    0.852266|   -0.340702|
|       24300|   -7.905808|   -7.271619|   -7.701782|   -7.529959|    0.162785|    2.074395|    0.853197|   -0.339609|
+-----------------------------------------------------------------------+
|        File Writing Summary       |              Filename             |
+-----------------------------------------------------------------------+
|SU2 binary restart                 |restart.dat                        |
|Paraview                           |vol_solution.vtu                   |
|Paraview surface                   |surface.vtu                        |
+-----------------------------------------------------------------------+
+--------------------------------------------------------------------------------------------------------------------+
|  Inner_Iter|    rms[Rho]|   rms[RhoU]|   rms[RhoV]|   rms[RhoE]|          CD|          CL|         CMz|   LinSolRes|
+--------------------------------------------------------------------------------------------------------------------+
|       24325|   -7.912353|   -7.274438|   -7.708140|   -7.536527|    0.162144|    2.078485|    0.854136|   -0.337285|
|       24350|   -7.917554|   -7.276348|   -7.707158|   -7.542695|    0.161500|    2.082605|    0.855096|   -0.331404|
|       24375|   -7.905745|   -7.274424|   -7.696267|   -7.530394|    0.160899|    2.086801|    0.856118|   -0.356524|
|       24400|   -7.907506|   -7.274681|   -7.686573|   -7.533166|    0.160270|    2.090929|    0.857085|   -0.359799|
+-----------------------------------------------------------------------+
|        File Writing Summary       |              Filename             |
+-----------------------------------------------------------------------+
|SU2 binary restart                 |restart.dat                        |
|Paraview                           |vol_solution.vtu                   |
|Paraview surface                   |surface.vtu                        |
+-----------------------------------------------------------------------+
+--------------------------------------------------------------------------------------------------------------------+
|  Inner_Iter|    rms[Rho]|   rms[RhoU]|   rms[RhoV]|   rms[RhoE]|          CD|          CL|         CMz|   LinSolRes|
+--------------------------------------------------------------------------------------------------------------------+
|       24425|   -7.914494|   -7.276520|   -7.691696|   -7.540611|    0.159658|    2.095099|    0.858084|   -0.335329|
|       24450|   -7.909301|   -7.279703|   -7.700417|   -7.534246|    0.159030|    2.099258|    0.859069|   -0.353032|
|       24475|   -7.917773|   -7.282290|   -7.706981|   -7.543262|    0.158419|    2.103433|    0.860072|   -0.347417|
|       24500|   -7.919525|   -7.282832|   -7.701555|   -7.545713|    0.157813|    2.107615|    0.861086|   -0.341385|
+-----------------------------------------------------------------------+
|        File Writing Summary       |              Filename             |
+-----------------------------------------------------------------------+
|SU2 binary restart                 |restart.dat                        |
|Paraview                           |vol_solution.vtu                   |
|Paraview surface                   |surface.vtu                        |
+-----------------------------------------------------------------------+
+--------------------------------------------------------------------------------------------------------------------+
|  Inner_Iter|    rms[Rho]|   rms[RhoU]|   rms[RhoV]|   rms[RhoE]|          CD|          CL|         CMz|   LinSolRes|
+--------------------------------------------------------------------------------------------------------------------+
|       24525|   -7.920082|   -7.285681|   -7.699960|   -7.546140|    0.157190|    2.111766|    0.862069|   -0.341221|
|       24550|   -7.915707|   -7.288725|   -7.706408|   -7.541267|    0.156588|    2.115910|    0.863072|   -0.346268|
|       24575|   -7.919140|   -7.289789|   -7.708929|   -7.544682|    0.156010|    2.120118|    0.864120|   -0.350228|
|       24600|   -7.924400|   -7.291108|   -7.700493|   -7.551294|    0.155409|    2.124279|    0.865130|   -0.342426|
+-----------------------------------------------------------------------+
|        File Writing Summary       |              Filename             |
+-----------------------------------------------------------------------+
|SU2 binary restart                 |restart.dat                        |
|Paraview                           |vol_solution.vtu                   |
|Paraview surface                   |surface.vtu                        |
+-----------------------------------------------------------------------+
+--------------------------------------------------------------------------------------------------------------------+
|  Inner_Iter|    rms[Rho]|   rms[RhoU]|   rms[RhoV]|   rms[RhoE]|          CD|          CL|         CMz|   LinSolRes|
+--------------------------------------------------------------------------------------------------------------------+
|       24625|   -7.926202|   -7.292617|   -7.701620|   -7.553488|    0.154840|    2.128471|    0.866179|   -0.342955|
|       24650|   -7.917873|   -7.294273|   -7.704697|   -7.544132|    0.154271|    2.132686|    0.867239|   -0.340160|
|       24675|   -7.921149|   -7.297561|   -7.704840|   -7.547583|    0.153690|    2.136849|    0.868261|   -0.350983|
|       24700|   -7.932426|   -7.300440|   -7.709707|   -7.560468|    0.153118|    2.141024|    0.869306|   -0.344568|
+-----------------------------------------------------------------------+
|        File Writing Summary       |              Filename             |
+-----------------------------------------------------------------------+
|SU2 binary restart                 |restart.dat                        |
|Paraview                           |vol_solution.vtu                   |
|Paraview surface                   |surface.vtu                        |
+-----------------------------------------------------------------------+
+--------------------------------------------------------------------------------------------------------------------+
|  Inner_Iter|    rms[Rho]|   rms[RhoU]|   rms[RhoV]|   rms[RhoE]|          CD|          CL|         CMz|   LinSolRes|
+--------------------------------------------------------------------------------------------------------------------+
|       24725|   -7.933592|   -7.303256|   -7.713744|   -7.560996|    0.152556|    2.145210|    0.870362|   -0.340662|
|       24750|   -7.926458|   -7.306020|   -7.713152|   -7.553153|    0.151995|    2.149350|    0.871395|   -0.342974|
|       24775|   -7.929061|   -7.308283|   -7.712376|   -7.556116|    0.151450|    2.153527|    0.872460|   -0.350424|
|       24800|   -7.937548|   -7.311578|   -7.713818|   -7.565470|    0.150881|    2.157632|    0.873480|   -0.346596|
+-----------------------------------------------------------------------+
|        File Writing Summary       |              Filename             |
+-----------------------------------------------------------------------+
|SU2 binary restart                 |restart.dat                        |
|Paraview                           |vol_solution.vtu                   |
|Paraview surface                   |surface.vtu                        |
+-----------------------------------------------------------------------+
+--------------------------------------------------------------------------------------------------------------------+
|  Inner_Iter|    rms[Rho]|   rms[RhoU]|   rms[RhoV]|   rms[RhoE]|          CD|          CL|         CMz|   LinSolRes|
+--------------------------------------------------------------------------------------------------------------------+
|       24825|   -7.939686|   -7.314751|   -7.718849|   -7.568256|    0.150342|    2.161759|    0.874527|   -0.341181|
|       24850|   -7.934926|   -7.316021|   -7.719436|   -7.561929|    0.149820|    2.165901|    0.875600|   -0.344783|
|       24875|   -7.935208|   -7.318887|   -7.717451|   -7.562726|    0.149291|    2.170018|    0.876655|   -0.351680|
|       24900|   -7.943776|   -7.320780|   -7.715644|   -7.572881|    0.148779|    2.174134|    0.877724|   -0.347493|
+-----------------------------------------------------------------------+
|        File Writing Summary       |              Filename             |
+-----------------------------------------------------------------------+
|SU2 binary restart                 |restart.dat                        |
|Paraview                           |vol_solution.vtu                   |
|Paraview surface                   |surface.vtu                        |
+-----------------------------------------------------------------------+
+--------------------------------------------------------------------------------------------------------------------+
|  Inner_Iter|    rms[Rho]|   rms[RhoU]|   rms[RhoV]|   rms[RhoE]|          CD|          CL|         CMz|   LinSolRes|
+--------------------------------------------------------------------------------------------------------------------+
|       24925|   -7.951019|   -7.324258|   -7.720990|   -7.580576|    0.148260|    2.178238|    0.878779|   -0.331984|
|       24950|   -7.948977|   -7.328085|   -7.724843|   -7.577711|    0.147734|    2.182291|    0.879814|   -0.343748|
|       24975|   -7.938878|   -7.330919|   -7.732474|   -7.565812|    0.147251|    2.186413|    0.880909|   -0.359419|
|       24999|   -7.941672|   -7.332493|   -7.728501|   -7.569209|    0.146775|    2.190328|    0.881941|   -0.357012|

----------------------------- Solver Exit -------------------------------

Maximum number of iterations reached (ITER = 25000) before convergence.
+-----------------------------------------------------------------------+
|      Convergence Field     |     Value    |   Criterion  |  Converged |
+-----------------------------------------------------------------------+
|                  Cauchy[CL]|   7.71424e-05|       < 5e-07|          No|
+-----------------------------------------------------------------------+
-------------------------------------------------------------------------
+-----------------------------------------------------------------------+
|        File Writing Summary       |              Filename             |
+-----------------------------------------------------------------------+
|SU2 binary restart                 |restart.dat                        |
|Paraview                           |vol_solution.vtu                   |
|Paraview surface                   |surface.vtu                        |
+-----------------------------------------------------------------------+

------------------------- Solver Postprocessing -------------------------
Deleted CNumerics container.
Deleted CIntegration container.
Deleted CSolver container.
Deleted CIteration container.
Deleted CInterface container.
Deleted CGeometry container.
Deleted CFreeFormDefBox class.
Deleted CSurfaceMovement class.
Deleted CVolumetricMovement class.
Deleted CConfig container.
Deleted nInst container.
Deleted COutput class.
-------------------------------------------------------------------------

------------------------- Exit Success (SU2_CFD) ------------------------

