WARNING: The current SST-1994m model is inconsistent with literature. We recommend using the SST-2003m model.
In SU2 v8 the 2003m model will become default, and the inconsistency will be fixed.

-------------------------------------------------------------------------
|    ___ _   _ ___                                                      |
|   / __| | | |_  )   Release 7.4.0 "Blackbird"                         |
|   \__ \ |_| |/ /                                                      |
|   |___/\___//___|   Suite (Computational Fluid Dynamics Code)         |
|                                                                       |
-------------------------------------------------------------------------
| SU2 Project Website: https://su2code.github.io                        |
|                                                                       |
| The SU2 Project is maintained by the SU2 Foundation                   |
| (http://su2foundation.org)                                            |
-------------------------------------------------------------------------
| Copyright 2012-2022, SU2 Contributors                                 |
|                                                                       |
| SU2 is free software; you can redistribute it and/or                  |
| modify it under the terms of the GNU Lesser General Public            |
| License as published by the Free Software Foundation; either          |
| version 2.1 of the License, or (at your option) any later version.    |
|                                                                       |
| SU2 is distributed in the hope that it will be useful,                |
| but WITHOUT ANY WARRANTY; without even the implied warranty of        |
| MERCHANTABILITY or FITNESS FOR A PARTICULAR PURPOSE. See the GNU      |
| Lesser General Public License for more details.                       |
|                                                                       |
| You should have received a copy of the GNU Lesser General Public      |
| License along with SU2. If not, see <http://www.gnu.org/licenses/>.   |
-------------------------------------------------------------------------
WARNING: The current SST-1994m model is inconsistent with literature. We recommend using the SST-2003m model.
In SU2 v8 the 2003m model will become default, and the inconsistency will be fixed.

Parsing config file for zone 0
WARNING: The current SST-1994m model is inconsistent with literature. We recommend using the SST-2003m model.
In SU2 v8 the 2003m model will become default, and the inconsistency will be fixed.

----------------- Physical Case Definition ( Zone 0 ) -------------------
Compressible RANS equations.
Turbulence model: Menter's k-omega SST-1994m with no production modification.
Hybrid RANS/LES: No Hybrid RANS/LES
Mach number: 0.2.
Angle of attack (AoA): 12 deg, and angle of sideslip (AoS): 0 deg.
Reynolds number: 1.22082e+07. Reference length 2.62.
Reading and writing binary SU2 native restart files.
Read flow solution from: solution_flow.
Non-Dimensional simulation (V=Mach, Rho=1.0, T=1.0 at the farfield).
The reference area is 2.62 m^2.
The semi-span will be computed using the max y(3D) value.
The reference length is 2.62 m.
Reference origin for moment evaluation is (0, 0, 0).
Surface(s) where the force coefficients are evaluated: wall.

Surface(s) plotted in the output file: wall.
Input mesh file name: su2meshEx.su2

--------------- Space Numerical Integration ( Zone 0 ) ------------------
Roe (with entropy fix = 1e-05) solver for the flow inviscid terms.
Standard Roe without low-dissipation function.
Second order integration in space, with slope limiter.
Van Albada slope-limiting method implemented by edges.
Scalar upwind solver for the turbulence model.
First order integration in space.
Average of gradients with correction (viscous flow terms).
Average of gradients with correction (viscous turbulence terms).
Gradient for upwind reconstruction: Green-Gauss.
Gradient for viscous and source terms: Green-Gauss.

--------------- Time Numerical Integration  ( Zone 0 ) ------------------
Local time stepping (steady state simulation).
Euler implicit method for the flow equations.
FGMRES is used for solving the linear system.
Using a ILU(0) preconditioning.
Convergence criteria of the linear solver: 0.2.
Max number of linear iterations: 4.
CFL adaptation. Factor down: 0.1, factor up: 1.2,
                lower limit: 25, upper limit: 1000,
                acceptable linear residual: 0.001.
Courant-Friedrichs-Lewy number:       25
Euler implicit time integration for the turbulence model.

------------------ Convergence Criteria  ( Zone 0 ) ---------------------
Maximum number of solver subiterations: 50000.
Begin convergence monitoring at iteration 10.
Residual minimum value: 1e-11.5.
Cauchy series min. value: 5e-07.
Number of Cauchy elements: 500.
Begin windowed time average at iteration 0.

-------------------- Output Information ( Zone 0 ) ----------------------
File writing frequency: 
+------------------------------------+
|                     File| Frequency|
+------------------------------------+
|                  RESTART|       100|
|                 PARAVIEW|       100|
|         SURFACE_PARAVIEW|       100|
+------------------------------------+
Writing the convergence history file every 1 inner iterations.
Writing the screen convergence history every 25 inner iterations.
The tabular file format is CSV (.csv).
Convergence history file name: history.
Forces breakdown file name: forces_breakdown.dat.
Surface file name: surface.
Volume file name: vol_solution.
Restart file name: restart.dat.

------------- Config File Boundary Information ( Zone 0 ) ---------------
+-----------------------------------------------------------------------+
|                        Marker Type|                        Marker Name|
+-----------------------------------------------------------------------+
|                          Far-field|                          far-field|
+-----------------------------------------------------------------------+
|                     Heat flux wall|                               wall|
+-----------------------------------------------------------------------+

-------------------- Output Preprocessing ( Zone 0 ) --------------------

WARNING: SURFACE_PRESSURE_DROP can only be computed for at least 2 surfaces (outlet, inlet, ...)

  Info: Ignoring the following screen output fields:
  RMS_NU_TILDE
Screen output fields: INNER_ITER, RMS_DENSITY, RMS_MOMENTUM-X, RMS_MOMENTUM-Y, RMS_ENERGY, DRAG, LIFT, MOMENT_Z, LINSOL_RESIDUAL
History output group(s): ITER, RMS_RES, AERO_COEFF
Convergence field(s): LIFT
Warning: No (valid) fields chosen for time convergence monitoring. Time convergence monitoring inactive.
Volume output fields: COORDINATES, SOLUTION, PRIMITIVE

------------------- Geometry Preprocessing ( Zone 0 ) -------------------
Two dimensional problem.
82001 grid points before partitioning.
110096 volume elements before partitioning.
2 surface markers.
76 boundary elements in index 0 (Marker = far-field).
723 boundary elements in index 1 (Marker = wall).
Executing the partitioning functions.
Building the graph adjacency structure.
Calling ParMETIS... graph partitioning complete (1791 edge cuts).
Distributing ParMETIS coloring.
Rebalancing vertices.
Rebalancing volume element connectivity.
Rebalancing markers and surface elements.
84501 vertices including ghost points. 
111887 interior elements including halo cells. 
58082 triangles.
53805 quadrilaterals.
Establishing MPI communication patterns.
Setting point connectivity.
Renumbering points (Reverse Cuthill McKee Ordering).
Recomputing point connectivity.
Setting element connectivity.
Checking the numerical grid orientation.
All volume elements are correctly orientend.
All surface elements are correctly orientend.
Identifying edges and vertices.
Setting the control volume structure.
Area of the computational grid: 98853.7.
Searching for the closest normal neighbors to the surfaces.
Storing a mapping from global to local point index.
Compute the surface curvature.
Max K: 1170.36. Mean K: 8.52212. Standard deviation K: 78.5888.
Checking for periodicity.
Computing mesh quality statistics for the dual control volumes.
+--------------------------------------------------------------+
|           Mesh Quality Metric|        Minimum|        Maximum|
+--------------------------------------------------------------+
|    Orthogonality Angle (deg.)|        60.5564|             90|
|     CV Face Area Aspect Ratio|        1.00119|        10426.8|
|           CV Sub-Volume Ratio|              1|        5.72924|
+--------------------------------------------------------------+
Finding max control volume width.
Communicating number of neighbors.
Wetted area = 6.32542 m.
Area projection in the x-plane = 0.630114 m, y-plane = 2.96262 m.
Max. coordinate in the x-direction = 2.9339 m, y-direction = 0.165086 m.
Min. coordinate in the x-direction = 0 m, y-direction = -0.309055 m.
Computing wall distances.

-------------------- Solver Preprocessing ( Zone 0 ) --------------------
Viscous flow: Computing pressure using the ideal gas law
based on the free-stream temperature and a density computed
from the Reynolds number.
Force coefficients computed using free-stream values.

-- Models:
+------------------------------------------------------------------------------+
|          Viscosity Model|        Conductivity Model|              Fluid Model|
+------------------------------------------------------------------------------+
|               SUTHERLAND|          CONSTANT_PRANDTL|             STANDARD_AIR|
+------------------------------------------------------------------------------+
-- Fluid properties:
+------------------------------------------------------------------------------+
|                  Name|    Dim. value|    Ref. value|      Unit|Non-dim. value|
+------------------------------------------------------------------------------+
|        Ref. Viscosity|     1.716e-05|       416.883|   N.s/m^2|   4.11626e-08|
|      Sutherland Temp.|        273.15|        288.16|         K|      0.947911|
|     Sutherland Const.|         110.4|        288.16|         K|       0.38312|
+------------------------------------------------------------------------------+
|        Prandtl (Lam.)|             -|             -|         -|          0.72|
|       Prandtl (Turb.)|             -|             -|         -|           0.9|
+------------------------------------------------------------------------------+
|          Gas Constant|       287.058|       401.881|  N.m/kg.K|      0.714286|
|      Spec. Heat Ratio|             -|             -|         -|           1.4|
+------------------------------------------------------------------------------+
-- Initial and free-stream conditions:
+------------------------------------------------------------------------------+
|                  Name|    Dim. value|    Ref. value|      Unit|Non-dim. value|
+------------------------------------------------------------------------------+
|       Static Pressure|        101333|        141867|        Pa|      0.714286|
|               Density|       1.22504|       1.22504|    kg/m^3|             1|
|           Temperature|        288.16|        288.16|         K|             1|
|          Total Energy|        209130|        115806|   m^2/s^2|       1.80586|
|            Velocity-X|       66.5733|       340.303|       m/s|       0.19563|
|            Velocity-Y|       14.1506|       340.303|       m/s|     0.0415823|
|    Velocity Magnitude|       68.0606|       340.303|       m/s|           0.2|
+------------------------------------------------------------------------------+
|             Viscosity|   1.78935e-05|       416.883|   N.s/m^2|    4.2922e-08|
|          Conductivity|             -|        167537|   W/m^2.K|             -|
|     Turb. Kin. Energy|       17.3709|        115806|   m^2/s^2|       0.00015|
|     Spec. Dissipation|        118926|       340.303|       1/s|       349.471|
+------------------------------------------------------------------------------+
|           Mach Number|             -|             -|         -|           0.2|
|       Reynolds Number|             -|             -|         -|   1.22082e+07|
+------------------------------------------------------------------------------+
Initialize Jacobian structure (Navier-Stokes). MG level: 0.
Initialize Jacobian structure (SST model).

------------------- Numerics Preprocessing ( Zone 0 ) -------------------

----------------- Integration Preprocessing ( Zone 0 ) ------------------

------------------- Iteration Preprocessing ( Zone 0 ) ------------------
Euler/Navier-Stokes/RANS fluid iteration.

------------------------------ Begin Solver -----------------------------

Simulation Run using the Single-zone Driver
WARNING: SU2 was not compiled for an AVX-capable architecture.
+--------------------------------------------------------------------------------------------------------------------+
|  Inner_Iter|    rms[Rho]|   rms[RhoU]|   rms[RhoV]|   rms[RhoE]|          CD|          CL|         CMz|   LinSolRes|
+--------------------------------------------------------------------------------------------------------------------+
|           0|   -3.211485|   -3.727757|   -3.205863|   -2.809442|    0.248102|    1.708708|    0.784660|   -0.991418|
|          25|   -5.865111|   -5.083351|   -5.198241|   -5.410790|    0.256755|    1.773517|    0.813672|   -0.684177|
|          50|   -6.538172|   -5.540428|   -5.915215|   -5.982120|    0.239462|    1.833195|    0.822189|   -0.656741|
|          75|   -6.813124|   -5.884944|   -6.268162|   -6.292380|    0.226389|    1.826569|    0.819247|   -0.638286|
|         100|   -7.158070|   -6.228432|   -6.657606|   -6.678112|    0.225823|    1.802890|    0.808829|   -0.707036|
+-----------------------------------------------------------------------+
|        File Writing Summary       |              Filename             |
+-----------------------------------------------------------------------+
|SU2 binary restart                 |restart.dat                        |
|Paraview                           |vol_solution.vtu                   |
|Paraview surface                   |surface.vtu                        |
+-----------------------------------------------------------------------+
+--------------------------------------------------------------------------------------------------------------------+
|  Inner_Iter|    rms[Rho]|   rms[RhoU]|   rms[RhoV]|   rms[RhoE]|          CD|          CL|         CMz|   LinSolRes|
+--------------------------------------------------------------------------------------------------------------------+
|         125|   -7.391163|   -6.463006|   -6.845542|   -6.876574|    0.228778|    1.807143|    0.812198|   -0.577466|
|         150|   -7.510862|   -6.683070|   -7.006997|   -7.060705|    0.227240|    1.807680|    0.809840|   -0.718049|
|         175|   -7.737171|   -6.984777|   -7.323339|   -7.311979|    0.226202|    1.806840|    0.809900|   -0.455254|
|         200|   -7.901608|   -7.182107|   -7.466726|   -7.479779|    0.226039|    1.806855|    0.809681|   -0.417258|
+-----------------------------------------------------------------------+
|        File Writing Summary       |              Filename             |
+-----------------------------------------------------------------------+
|SU2 binary restart                 |restart.dat                        |
|Paraview                           |vol_solution.vtu                   |
|Paraview surface                   |surface.vtu                        |
+-----------------------------------------------------------------------+
+--------------------------------------------------------------------------------------------------------------------+
|  Inner_Iter|    rms[Rho]|   rms[RhoU]|   rms[RhoV]|   rms[RhoE]|          CD|          CL|         CMz|   LinSolRes|
+--------------------------------------------------------------------------------------------------------------------+
|         225|   -7.904916|   -7.178734|   -7.475326|   -7.476285|    0.225819|    1.804466|    0.809146|   -0.428316|
|         250|   -7.989473|   -7.399898|   -7.652426|   -7.598006|    0.226219|    1.805337|    0.809629|   -0.301888|
|         275|   -8.053299|   -7.467920|   -7.686468|   -7.671849|    0.225493|    1.803257|    0.807998|   -0.410731|
|         300|   -8.040177|   -7.436136|   -7.693307|   -7.666663|    0.225033|    1.802203|    0.807335|   -0.335111|
+-----------------------------------------------------------------------+
|        File Writing Summary       |              Filename             |
+-----------------------------------------------------------------------+
|SU2 binary restart                 |restart.dat                        |
|Paraview                           |vol_solution.vtu                   |
|Paraview surface                   |surface.vtu                        |
+-----------------------------------------------------------------------+
+--------------------------------------------------------------------------------------------------------------------+
|  Inner_Iter|    rms[Rho]|   rms[RhoU]|   rms[RhoV]|   rms[RhoE]|          CD|          CL|         CMz|   LinSolRes|
+--------------------------------------------------------------------------------------------------------------------+
|         325|   -7.950448|   -7.438229|   -7.724757|   -7.579451|    0.224343|    1.800889|    0.805981|   -0.281777|
|         350|   -8.131923|   -7.519775|   -7.808281|   -7.795212|    0.224046|    1.800091|    0.805681|   -0.369792|
|         375|   -8.237417|   -7.461653|   -7.757751|   -7.818116|    0.223775|    1.800318|    0.805227|   -0.433877|
|         400|   -8.213829|   -7.601953|   -7.865014|   -7.812046|    0.223214|    1.799557|    0.804542|   -0.386127|
+-----------------------------------------------------------------------+
|        File Writing Summary       |              Filename             |
+-----------------------------------------------------------------------+
|SU2 binary restart                 |restart.dat                        |
|Paraview                           |vol_solution.vtu                   |
|Paraview surface                   |surface.vtu                        |
+-----------------------------------------------------------------------+
+--------------------------------------------------------------------------------------------------------------------+
|  Inner_Iter|    rms[Rho]|   rms[RhoU]|   rms[RhoV]|   rms[RhoE]|          CD|          CL|         CMz|   LinSolRes|
+--------------------------------------------------------------------------------------------------------------------+
|         425|   -8.329773|   -7.638835|   -8.084087|   -7.931374|    0.223054|    1.800427|    0.804452|   -0.360047|
|         450|   -8.251242|   -7.600859|   -8.052864|   -7.859541|    0.222623|    1.801139|    0.804470|   -0.339197|
|         475|   -8.210630|   -7.553473|   -7.978726|   -7.824157|    0.222429|    1.802359|    0.804536|   -0.330698|
|         500|   -8.126759|   -7.532230|   -7.883645|   -7.746310|    0.221924|    1.803649|    0.804683|   -0.305928|
+-----------------------------------------------------------------------+
|        File Writing Summary       |              Filename             |
+-----------------------------------------------------------------------+
|SU2 binary restart                 |restart.dat                        |
|Paraview                           |vol_solution.vtu                   |
|Paraview surface                   |surface.vtu                        |
+-----------------------------------------------------------------------+
+--------------------------------------------------------------------------------------------------------------------+
|  Inner_Iter|    rms[Rho]|   rms[RhoU]|   rms[RhoV]|   rms[RhoE]|          CD|          CL|         CMz|   LinSolRes|
+--------------------------------------------------------------------------------------------------------------------+
|         525|   -8.195725|   -7.551353|   -7.918690|   -7.822540|    0.221437|    1.804658|    0.804505|   -0.377786|
|         550|   -8.177339|   -7.526625|   -7.944319|   -7.801379|    0.221079|    1.806274|    0.804878|   -0.359270|
|         575|   -8.157214|   -7.521416|   -7.935410|   -7.777085|    0.220650|    1.807982|    0.805093|   -0.341740|
|         600|   -8.132923|   -7.511157|   -7.932600|   -7.755832|    0.220124|    1.809396|    0.805194|   -0.337638|
+-----------------------------------------------------------------------+
|        File Writing Summary       |              Filename             |
+-----------------------------------------------------------------------+
|SU2 binary restart                 |restart.dat                        |
|Paraview                           |vol_solution.vtu                   |
|Paraview surface                   |surface.vtu                        |
+-----------------------------------------------------------------------+
+--------------------------------------------------------------------------------------------------------------------+
|  Inner_Iter|    rms[Rho]|   rms[RhoU]|   rms[RhoV]|   rms[RhoE]|          CD|          CL|         CMz|   LinSolRes|
+--------------------------------------------------------------------------------------------------------------------+
|         625|   -8.125579|   -7.498471|   -7.980859|   -7.747972|    0.219741|    1.811317|    0.805605|   -0.326381|
|         650|   -8.129576|   -7.498021|   -7.986138|   -7.751988|    0.219177|    1.812942|    0.805727|   -0.317956|
|         675|   -8.151698|   -7.505312|   -7.993721|   -7.774177|    0.218663|    1.814525|    0.805930|   -0.340206|
|         700|   -8.158283|   -7.504401|   -8.009242|   -7.775582|    0.218159|    1.816368|    0.806210|   -0.339240|
+-----------------------------------------------------------------------+
|        File Writing Summary       |              Filename             |
+-----------------------------------------------------------------------+
|SU2 binary restart                 |restart.dat                        |
|Paraview                           |vol_solution.vtu                   |
|Paraview surface                   |surface.vtu                        |
+-----------------------------------------------------------------------+
+--------------------------------------------------------------------------------------------------------------------+
|  Inner_Iter|    rms[Rho]|   rms[RhoU]|   rms[RhoV]|   rms[RhoE]|          CD|          CL|         CMz|   LinSolRes|
+--------------------------------------------------------------------------------------------------------------------+
|         725|   -8.141598|   -7.496755|   -7.995449|   -7.755536|    0.217603|    1.817870|    0.806363|   -0.330580|
|         750|   -8.134660|   -7.494115|   -7.976829|   -7.749251|    0.217085|    1.819570|    0.806564|   -0.333320|
|         775|   -8.143538|   -7.491487|   -8.004132|   -7.755979|    0.216482|    1.821037|    0.806655|   -0.333013|
|         800|   -8.144415|   -7.489328|   -8.016460|   -7.756428|    0.215937|    1.822593|    0.806784|   -0.325157|
+-----------------------------------------------------------------------+
|        File Writing Summary       |              Filename             |
+-----------------------------------------------------------------------+
|SU2 binary restart                 |restart.dat                        |
|Paraview                           |vol_solution.vtu                   |
|Paraview surface                   |surface.vtu                        |
+-----------------------------------------------------------------------+
+--------------------------------------------------------------------------------------------------------------------+
|  Inner_Iter|    rms[Rho]|   rms[RhoU]|   rms[RhoV]|   rms[RhoE]|          CD|          CL|         CMz|   LinSolRes|
+--------------------------------------------------------------------------------------------------------------------+
|         825|   -8.145191|   -7.486161|   -8.007434|   -7.757226|    0.215339|    1.824090|    0.806864|   -0.338496|
|         850|   -8.135145|   -7.477631|   -8.002453|   -7.746090|    0.214767|    1.825620|    0.806960|   -0.333460|
|         875|   -8.129539|   -7.473311|   -7.990833|   -7.740474|    0.214166|    1.827154|    0.807035|   -0.339854|
|         900|   -8.116758|   -7.462706|   -7.978484|   -7.728172|    0.213596|    1.828784|    0.807166|   -0.339869|
+-----------------------------------------------------------------------+
|        File Writing Summary       |              Filename             |
+-----------------------------------------------------------------------+
|SU2 binary restart                 |restart.dat                        |
|Paraview                           |vol_solution.vtu                   |
|Paraview surface                   |surface.vtu                        |
+-----------------------------------------------------------------------+
+--------------------------------------------------------------------------------------------------------------------+
|  Inner_Iter|    rms[Rho]|   rms[RhoU]|   rms[RhoV]|   rms[RhoE]|          CD|          CL|         CMz|   LinSolRes|
+--------------------------------------------------------------------------------------------------------------------+
|         925|   -8.104712|   -7.449475|   -7.958150|   -7.716361|    0.213036|    1.830509|    0.807339|   -0.329235|
|         950|   -8.092971|   -7.440181|   -7.931521|   -7.706094|    0.212437|    1.832258|    0.807476|   -0.333967|
|         975|   -8.089097|   -7.432980|   -7.937940|   -7.702373|    0.211848|    1.834068|    0.807635|   -0.339287|
|        1000|   -8.073135|   -7.425338|   -7.935936|   -7.685673|    0.211221|    1.835941|    0.807794|   -0.332279|
+-----------------------------------------------------------------------+
|        File Writing Summary       |              Filename             |
+-----------------------------------------------------------------------+
|SU2 binary restart                 |restart.dat                        |
|Paraview                           |vol_solution.vtu                   |
|Paraview surface                   |surface.vtu                        |
+-----------------------------------------------------------------------+
+--------------------------------------------------------------------------------------------------------------------+
|  Inner_Iter|    rms[Rho]|   rms[RhoU]|   rms[RhoV]|   rms[RhoE]|          CD|          CL|         CMz|   LinSolRes|
+--------------------------------------------------------------------------------------------------------------------+
|        1025|   -8.073266|   -7.420493|   -7.929126|   -7.687049|    0.210579|    1.837807|    0.807918|   -0.342268|
|        1050|   -8.056942|   -7.407362|   -7.916323|   -7.670422|    0.209981|    1.839856|    0.808165|   -0.331206|
|        1075|   -8.044873|   -7.396218|   -7.886743|   -7.659254|    0.209355|    1.841958|    0.808389|   -0.328879|
|        1100|   -8.038077|   -7.387597|   -7.872498|   -7.653859|    0.208713|    1.844084|    0.808610|   -0.335416|
+-----------------------------------------------------------------------+
|        File Writing Summary       |              Filename             |
+-----------------------------------------------------------------------+
|SU2 binary restart                 |restart.dat                        |
|Paraview                           |vol_solution.vtu                   |
|Paraview surface                   |surface.vtu                        |
+-----------------------------------------------------------------------+
+--------------------------------------------------------------------------------------------------------------------+
|  Inner_Iter|    rms[Rho]|   rms[RhoU]|   rms[RhoV]|   rms[RhoE]|          CD|          CL|         CMz|   LinSolRes|
+--------------------------------------------------------------------------------------------------------------------+
|        1125|   -8.026080|   -7.377542|   -7.869491|   -7.641642|    0.208096|    1.846409|    0.808933|   -0.334475|
|        1150|   -8.013687|   -7.369719|   -7.855468|   -7.629576|    0.207456|    1.848746|    0.809227|   -0.334796|
|        1175|   -8.002444|   -7.362067|   -7.843837|   -7.618795|    0.206820|    1.851162|    0.809554|   -0.337887|
|        1200|   -7.995087|   -7.356489|   -7.840297|   -7.610840|    0.206155|    1.853643|    0.809878|   -0.327328|
+-----------------------------------------------------------------------+
|        File Writing Summary       |              Filename             |
+-----------------------------------------------------------------------+
|SU2 binary restart                 |restart.dat                        |
|Paraview                           |vol_solution.vtu                   |
|Paraview surface                   |surface.vtu                        |
+-----------------------------------------------------------------------+
+--------------------------------------------------------------------------------------------------------------------+
|  Inner_Iter|    rms[Rho]|   rms[RhoU]|   rms[RhoV]|   rms[RhoE]|          CD|          CL|         CMz|   LinSolRes|
+--------------------------------------------------------------------------------------------------------------------+
|        1225|   -7.999469|   -7.355065|   -7.843267|   -7.616025|    0.205436|    1.856059|    0.810130|   -0.333492|
|        1250|   -7.999941|   -7.347311|   -7.843809|   -7.617530|    0.204789|    1.858700|    0.810544|   -0.336797|
|        1275|   -7.977622|   -7.332536|   -7.807739|   -7.595587|    0.204176|    1.861490|    0.811044|   -0.329023|
|        1300|   -7.961863|   -7.323676|   -7.772795|   -7.579747|    0.203504|    1.864231|    0.811452|   -0.328295|
+-----------------------------------------------------------------------+
|        File Writing Summary       |              Filename             |
+-----------------------------------------------------------------------+
|SU2 binary restart                 |restart.dat                        |
|Paraview                           |vol_solution.vtu                   |
|Paraview surface                   |surface.vtu                        |
+-----------------------------------------------------------------------+
+--------------------------------------------------------------------------------------------------------------------+
|  Inner_Iter|    rms[Rho]|   rms[RhoU]|   rms[RhoV]|   rms[RhoE]|          CD|          CL|         CMz|   LinSolRes|
+--------------------------------------------------------------------------------------------------------------------+
|        1325|   -7.958895|   -7.324929|   -7.787847|   -7.576657|    0.202791|    1.866950|    0.811815|   -0.343678|
|        1350|   -7.973530|   -7.325792|   -7.822435|   -7.590604|    0.202088|    1.869726|    0.812214|   -0.334051|
|        1375|   -7.965580|   -7.323514|   -7.820873|   -7.582223|    0.201378|    1.872541|    0.812626|   -0.334195|
|        1400|   -7.958300|   -7.316878|   -7.796445|   -7.575552|    0.200682|    1.875433|    0.813079|   -0.331667|
+-----------------------------------------------------------------------+
|        File Writing Summary       |              Filename             |
+-----------------------------------------------------------------------+
|SU2 binary restart                 |restart.dat                        |
|Paraview                           |vol_solution.vtu                   |
|Paraview surface                   |surface.vtu                        |
+-----------------------------------------------------------------------+
+--------------------------------------------------------------------------------------------------------------------+
|  Inner_Iter|    rms[Rho]|   rms[RhoU]|   rms[RhoV]|   rms[RhoE]|          CD|          CL|         CMz|   LinSolRes|
+--------------------------------------------------------------------------------------------------------------------+
|        1425|   -7.951544|   -7.310150|   -7.781321|   -7.569174|    0.199980|    1.878375|    0.813547|   -0.329230|
|        1450|   -7.950297|   -7.303430|   -7.770460|   -7.569007|    0.199306|    1.881386|    0.814057|   -0.334108|
|        1475|   -7.925025|   -7.297986|   -7.764986|   -7.542427|    0.198628|    1.884466|    0.814591|   -0.347270|
|        1500|   -7.943177|   -7.294416|   -7.757379|   -7.562989|    0.197930|    1.887587|    0.815128|   -0.332956|
+-----------------------------------------------------------------------+
|        File Writing Summary       |              Filename             |
+-----------------------------------------------------------------------+
|SU2 binary restart                 |restart.dat                        |
|Paraview                           |vol_solution.vtu                   |
|Paraview surface                   |surface.vtu                        |
+-----------------------------------------------------------------------+
+--------------------------------------------------------------------------------------------------------------------+
|  Inner_Iter|    rms[Rho]|   rms[RhoU]|   rms[RhoV]|   rms[RhoE]|          CD|          CL|         CMz|   LinSolRes|
+--------------------------------------------------------------------------------------------------------------------+
|        1525|   -7.936264|   -7.291978|   -7.761487|   -7.555713|    0.197240|    1.890738|    0.815673|   -0.321320|
|        1550|   -7.944137|   -7.290907|   -7.762253|   -7.563550|    0.196514|    1.893870|    0.816176|   -0.323543|
|        1575|   -7.932138|   -7.291540|   -7.769760|   -7.550031|    0.195775|    1.897000|    0.816675|   -0.335344|
|        1600|   -7.928572|   -7.287900|   -7.769881|   -7.546877|    0.195064|    1.900234|    0.817247|   -0.344769|
+-----------------------------------------------------------------------+
|        File Writing Summary       |              Filename             |
+-----------------------------------------------------------------------+
|SU2 binary restart                 |restart.dat                        |
|Paraview                           |vol_solution.vtu                   |
|Paraview surface                   |surface.vtu                        |
+-----------------------------------------------------------------------+
+--------------------------------------------------------------------------------------------------------------------+
|  Inner_Iter|    rms[Rho]|   rms[RhoU]|   rms[RhoV]|   rms[RhoE]|          CD|          CL|         CMz|   LinSolRes|
+--------------------------------------------------------------------------------------------------------------------+
|        1625|   -7.922194|   -7.280592|   -7.748840|   -7.539915|    0.194385|    1.903549|    0.817874|   -0.332616|
|        1650|   -7.915616|   -7.275474|   -7.727519|   -7.533919|    0.193679|    1.906855|    0.818456|   -0.331914|
|        1675|   -7.908755|   -7.277967|   -7.740698|   -7.526482|    0.192913|    1.910081|    0.818964|   -0.348897|
|        1700|   -7.936402|   -7.278127|   -7.763227|   -7.555760|    0.192204|    1.913432|    0.819575|   -0.336755|
+-----------------------------------------------------------------------+
|        File Writing Summary       |              Filename             |
+-----------------------------------------------------------------------+
|SU2 binary restart                 |restart.dat                        |
|Paraview                           |vol_solution.vtu                   |
|Paraview surface                   |surface.vtu                        |
+-----------------------------------------------------------------------+
+--------------------------------------------------------------------------------------------------------------------+
|  Inner_Iter|    rms[Rho]|   rms[RhoU]|   rms[RhoV]|   rms[RhoE]|          CD|          CL|         CMz|   LinSolRes|
+--------------------------------------------------------------------------------------------------------------------+
|        1725|   -7.924382|   -7.273640|   -7.748290|   -7.543319|    0.191518|    1.916897|    0.820248|   -0.338274|
|        1750|   -7.914282|   -7.270298|   -7.721762|   -7.532950|    0.190781|    1.920281|    0.820830|   -0.338318|
|        1775|   -7.912643|   -7.271675|   -7.733370|   -7.531035|    0.190036|    1.923658|    0.821418|   -0.339931|
|        1800|   -7.922583|   -7.269813|   -7.743525|   -7.542040|    0.189343|    1.927200|    0.822113|   -0.340088|
+-----------------------------------------------------------------------+
|        File Writing Summary       |              Filename             |
+-----------------------------------------------------------------------+
|SU2 binary restart                 |restart.dat                        |
|Paraview                           |vol_solution.vtu                   |
|Paraview surface                   |surface.vtu                        |
+-----------------------------------------------------------------------+
+--------------------------------------------------------------------------------------------------------------------+
|  Inner_Iter|    rms[Rho]|   rms[RhoU]|   rms[RhoV]|   rms[RhoE]|          CD|          CL|         CMz|   LinSolRes|
+--------------------------------------------------------------------------------------------------------------------+
|        1825|   -7.912619|   -7.264954|   -7.726447|   -7.532153|    0.188641|    1.930782|    0.822815|   -0.342611|
|        1850|   -7.910979|   -7.262556|   -7.710794|   -7.531637|    0.187952|    1.934384|    0.823526|   -0.325040|
|        1875|   -7.900366|   -7.261559|   -7.712293|   -7.520192|    0.187233|    1.937984|    0.824216|   -0.346291|
|        1900|   -7.910303|   -7.263495|   -7.724616|   -7.530127|    0.186499|    1.941533|    0.824870|   -0.340684|
+-----------------------------------------------------------------------+
|        File Writing Summary       |              Filename             |
+-----------------------------------------------------------------------+
|SU2 binary restart                 |restart.dat                        |
|Paraview                           |vol_solution.vtu                   |
|Paraview surface                   |surface.vtu                        |
+-----------------------------------------------------------------------+
+--------------------------------------------------------------------------------------------------------------------+
|  Inner_Iter|    rms[Rho]|   rms[RhoU]|   rms[RhoV]|   rms[RhoE]|          CD|          CL|         CMz|   LinSolRes|
+--------------------------------------------------------------------------------------------------------------------+
|        1925|   -7.923557|   -7.265623|   -7.731168|   -7.545170|    0.185775|    1.945091|    0.825541|   -0.335575|
|        1950|   -7.900538|   -7.264836|   -7.730396|   -7.518787|    0.185054|    1.948723|    0.826247|   -0.346114|
|        1975|   -7.901605|   -7.263588|   -7.723940|   -7.519910|    0.184330|    1.952347|    0.826938|   -0.345206|
|        2000|   -7.912322|   -7.263129|   -7.720281|   -7.532546|    0.183593|    1.955971|    0.827622|   -0.332937|
+-----------------------------------------------------------------------+
|        File Writing Summary       |              Filename             |
+-----------------------------------------------------------------------+
|SU2 binary restart                 |restart.dat                        |
|Paraview                           |vol_solution.vtu                   |
|Paraview surface                   |surface.vtu                        |
+-----------------------------------------------------------------------+
+--------------------------------------------------------------------------------------------------------------------+
|  Inner_Iter|    rms[Rho]|   rms[RhoU]|   rms[RhoV]|   rms[RhoE]|          CD|          CL|         CMz|   LinSolRes|
+--------------------------------------------------------------------------------------------------------------------+
|        2025|   -7.914974|   -7.262667|   -7.723338|   -7.536006|    0.182891|    1.959666|    0.828365|   -0.324812|
|        2050|   -7.899259|   -7.258312|   -7.711048|   -7.518894|    0.182214|    1.963455|    0.829163|   -0.348399|
|        2075|   -7.914034|   -7.258046|   -7.700668|   -7.536573|    0.181502|    1.967210|    0.829907|   -0.346604|
|        2100|   -7.902614|   -7.258977|   -7.706807|   -7.523571|    0.180776|    1.970919|    0.830630|   -0.333979|
+-----------------------------------------------------------------------+
|        File Writing Summary       |              Filename             |
+-----------------------------------------------------------------------+
|SU2 binary restart                 |restart.dat                        |
|Paraview                           |vol_solution.vtu                   |
|Paraview surface                   |surface.vtu                        |
+-----------------------------------------------------------------------+
+--------------------------------------------------------------------------------------------------------------------+
|  Inner_Iter|    rms[Rho]|   rms[RhoU]|   rms[RhoV]|   rms[RhoE]|          CD|          CL|         CMz|   LinSolRes|
+--------------------------------------------------------------------------------------------------------------------+
|        2125|   -7.911785|   -7.260341|   -7.724012|   -7.533314|    0.180086|    1.974713|    0.831428|   -0.335620|
|        2150|   -7.895005|   -7.258400|   -7.708233|   -7.514873|    0.179398|    1.978575|    0.832241|   -0.343037|
|        2175|   -7.911145|   -7.260170|   -7.700744|   -7.533374|    0.178671|    1.982299|    0.832966|   -0.336196|
|        2200|   -7.890204|   -7.260772|   -7.709551|   -7.510322|    0.177973|    1.986091|    0.833747|   -0.347606|
+-----------------------------------------------------------------------+
|        File Writing Summary       |              Filename             |
+-----------------------------------------------------------------------+
|SU2 binary restart                 |restart.dat                        |
|Paraview                           |vol_solution.vtu                   |
|Paraview surface                   |surface.vtu                        |
+-----------------------------------------------------------------------+
+--------------------------------------------------------------------------------------------------------------------+
|  Inner_Iter|    rms[Rho]|   rms[RhoU]|   rms[RhoV]|   rms[RhoE]|          CD|          CL|         CMz|   LinSolRes|
+--------------------------------------------------------------------------------------------------------------------+
|        2225|   -7.899017|   -7.261881|   -7.716212|   -7.519124|    0.177258|    1.989866|    0.834511|   -0.343242|
|        2250|   -7.904159|   -7.262367|   -7.714720|   -7.525411|    0.176557|    1.993661|    0.835293|   -0.330033|
|        2275|   -7.885238|   -7.259124|   -7.702943|   -7.505147|    0.175892|    1.997599|    0.836164|   -0.349965|
|        2300|   -7.884507|   -7.258661|   -7.699398|   -7.504452|    0.175185|    2.001441|    0.836949|   -0.329677|
+-----------------------------------------------------------------------+
|        File Writing Summary       |              Filename             |
+-----------------------------------------------------------------------+
|SU2 binary restart                 |restart.dat                        |
|Paraview                           |vol_solution.vtu                   |
|Paraview surface                   |surface.vtu                        |
+-----------------------------------------------------------------------+
+--------------------------------------------------------------------------------------------------------------------+
|  Inner_Iter|    rms[Rho]|   rms[RhoU]|   rms[RhoV]|   rms[RhoE]|          CD|          CL|         CMz|   LinSolRes|
+--------------------------------------------------------------------------------------------------------------------+
|        2325|   -7.900736|   -7.262457|   -7.709099|   -7.522335|    0.174473|    2.005266|    0.837727|   -0.349778|
|        2350|   -7.898942|   -7.262241|   -7.715831|   -7.520055|    0.173797|    2.009188|    0.838588|   -0.359926|
|        2375|   -7.893734|   -7.261596|   -7.704060|   -7.515426|    0.173147|    2.013148|    0.839478|   -0.333329|
|        2400|   -7.884100|   -7.261420|   -7.689016|   -7.505019|    0.172456|    2.017068|    0.840309|   -0.349415|
+-----------------------------------------------------------------------+
|        File Writing Summary       |              Filename             |
+-----------------------------------------------------------------------+
|SU2 binary restart                 |restart.dat                        |
|Paraview                           |vol_solution.vtu                   |
|Paraview surface                   |surface.vtu                        |
+-----------------------------------------------------------------------+
+--------------------------------------------------------------------------------------------------------------------+
|  Inner_Iter|    rms[Rho]|   rms[RhoU]|   rms[RhoV]|   rms[RhoE]|          CD|          CL|         CMz|   LinSolRes|
+--------------------------------------------------------------------------------------------------------------------+
|        2425|   -7.904074|   -7.265245|   -7.701193|   -7.526658|    0.171747|    2.020978|    0.841124|   -0.336638|
|        2450|   -7.903037|   -7.267644|   -7.719859|   -7.524741|    0.171065|    2.024902|    0.841977|   -0.340477|
|        2475|   -7.904285|   -7.268142|   -7.716086|   -7.526027|    0.170405|    2.028860|    0.842856|   -0.337235|
|        2500|   -7.896340|   -7.266315|   -7.699425|   -7.518064|    0.169735|    2.032800|    0.843725|   -0.338092|
+-----------------------------------------------------------------------+
|        File Writing Summary       |              Filename             |
+-----------------------------------------------------------------------+
|SU2 binary restart                 |restart.dat                        |
|Paraview                           |vol_solution.vtu                   |
|Paraview surface                   |surface.vtu                        |
+-----------------------------------------------------------------------+
+--------------------------------------------------------------------------------------------------------------------+
|  Inner_Iter|    rms[Rho]|   rms[RhoU]|   rms[RhoV]|   rms[RhoE]|          CD|          CL|         CMz|   LinSolRes|
+--------------------------------------------------------------------------------------------------------------------+
|        2525|   -7.907723|   -7.266587|   -7.699507|   -7.531098|    0.169082|    2.036773|    0.844611|   -0.334467|
|        2550|   -7.902341|   -7.268851|   -7.706050|   -7.524615|    0.168408|    2.040708|    0.845462|   -0.339382|
|        2575|   -7.911444|   -7.272398|   -7.713124|   -7.534395|    0.167711|    2.044618|    0.846297|   -0.336725|
|        2600|   -7.904431|   -7.272441|   -7.714028|   -7.526811|    0.167077|    2.048641|    0.847232|   -0.354260|
+-----------------------------------------------------------------------+
|        File Writing Summary       |              Filename             |
+-----------------------------------------------------------------------+
|SU2 binary restart                 |restart.dat                        |
|Paraview                           |vol_solution.vtu                   |
|Paraview surface                   |surface.vtu                        |
+-----------------------------------------------------------------------+
+--------------------------------------------------------------------------------------------------------------------+
|  Inner_Iter|    rms[Rho]|   rms[RhoU]|   rms[RhoV]|   rms[RhoE]|          CD|          CL|         CMz|   LinSolRes|
+--------------------------------------------------------------------------------------------------------------------+
|        2625|   -7.903990|   -7.270253|   -7.699940|   -7.527029|    0.166456|    2.052722|    0.848192|   -0.352174|
|        2650|   -7.905381|   -7.269075|   -7.684423|   -7.529929|    0.165798|    2.056640|    0.849052|   -0.322163|
|        2675|   -7.904478|   -7.273540|   -7.701416|   -7.527750|    0.165151|    2.060642|    0.849966|   -0.343981|
|        2700|   -7.917464|   -7.275082|   -7.711863|   -7.541728|    0.164529|    2.064713|    0.850920|   -0.322748|
+-----------------------------------------------------------------------+
|        File Writing Summary       |              Filename             |
+-----------------------------------------------------------------------+
|SU2 binary restart                 |restart.dat                        |
|Paraview                           |vol_solution.vtu                   |
|Paraview surface                   |surface.vtu                        |
+-----------------------------------------------------------------------+
+--------------------------------------------------------------------------------------------------------------------+
|  Inner_Iter|    rms[Rho]|   rms[RhoU]|   rms[RhoV]|   rms[RhoE]|          CD|          CL|         CMz|   LinSolRes|
+--------------------------------------------------------------------------------------------------------------------+
|        2725|   -7.912697|   -7.276353|   -7.704532|   -7.536265|    0.163881|    2.068756|    0.851839|   -0.337699|
|        2750|   -7.913139|   -7.278216|   -7.705187|   -7.537413|    0.163246|    2.072809|    0.852780|   -0.342184|
|        2775|   -7.920608|   -7.278732|   -7.703862|   -7.546247|    0.162612|    2.076856|    0.853723|   -0.336520|
|        2800|   -7.918805|   -7.281389|   -7.707693|   -7.543831|    0.161977|    2.080884|    0.854655|   -0.331421|
+-----------------------------------------------------------------------+
|        File Writing Summary       |              Filename             |
+-----------------------------------------------------------------------+
|SU2 binary restart                 |restart.dat                        |
|Paraview                           |vol_solution.vtu                   |
|Paraview surface                   |surface.vtu                        |
+-----------------------------------------------------------------------+
+--------------------------------------------------------------------------------------------------------------------+
|  Inner_Iter|    rms[Rho]|   rms[RhoU]|   rms[RhoV]|   rms[RhoE]|          CD|          CL|         CMz|   LinSolRes|
+--------------------------------------------------------------------------------------------------------------------+
|        2825|   -7.919648|   -7.281672|   -7.706192|   -7.544761|    0.161364|    2.084962|    0.855623|   -0.342492|
|        2850|   -7.917974|   -7.282461|   -7.707469|   -7.542656|    0.160734|    2.089047|    0.856582|   -0.337393|
|        2875|   -7.910389|   -7.284209|   -7.704450|   -7.534608|    0.160116|    2.093126|    0.857543|   -0.345277|
|        2900|   -7.918023|   -7.285396|   -7.707791|   -7.542937|    0.159513|    2.097253|    0.858543|   -0.346750|
+-----------------------------------------------------------------------+
|        File Writing Summary       |              Filename             |
+-----------------------------------------------------------------------+
|SU2 binary restart                 |restart.dat                        |
|Paraview                           |vol_solution.vtu                   |
|Paraview surface                   |surface.vtu                        |
+-----------------------------------------------------------------------+
+--------------------------------------------------------------------------------------------------------------------+
|  Inner_Iter|    rms[Rho]|   rms[RhoU]|   rms[RhoV]|   rms[RhoE]|          CD|          CL|         CMz|   LinSolRes|
+--------------------------------------------------------------------------------------------------------------------+
|        2925|   -7.924487|   -7.286975|   -7.706419|   -7.550417|    0.158897|    2.101351|    0.859520|   -0.341143|
|        2950|   -7.923940|   -7.288195|   -7.706345|   -7.549855|    0.158306|    2.105474|    0.860524|   -0.341720|
|        2975|   -7.914305|   -7.289348|   -7.705646|   -7.539180|    0.157704|    2.109600|    0.861525|   -0.341242|
|        3000|   -7.919865|   -7.293195|   -7.707410|   -7.544948|    0.157092|    2.113676|    0.862489|   -0.348423|
+-----------------------------------------------------------------------+
|        File Writing Summary       |              Filename             |
+-----------------------------------------------------------------------+
|SU2 binary restart                 |restart.dat                        |
|Paraview                           |vol_solution.vtu                   |
|Paraview surface                   |surface.vtu                        |
+-----------------------------------------------------------------------+
+--------------------------------------------------------------------------------------------------------------------+
|  Inner_Iter|    rms[Rho]|   rms[RhoU]|   rms[RhoV]|   rms[RhoE]|          CD|          CL|         CMz|   LinSolRes|
+--------------------------------------------------------------------------------------------------------------------+
|        3025|   -7.932756|   -7.296050|   -7.716367|   -7.559335|    0.156495|    2.117767|    0.863480|   -0.343580|
|        3050|   -7.932257|   -7.297469|   -7.717881|   -7.558411|    0.155916|    2.121893|    0.864504|   -0.340590|
|        3075|   -7.922304|   -7.299111|   -7.709934|   -7.547972|    0.155333|    2.125991|    0.865506|   -0.341470|
|        3100|   -7.924963|   -7.300103|   -7.708503|   -7.551078|    0.154764|    2.130114|    0.866535|   -0.350565|
+-----------------------------------------------------------------------+
|        File Writing Summary       |              Filename             |
+-----------------------------------------------------------------------+
|SU2 binary restart                 |restart.dat                        |
|Paraview                           |vol_solution.vtu                   |
|Paraview surface                   |surface.vtu                        |
+-----------------------------------------------------------------------+
+--------------------------------------------------------------------------------------------------------------------+
|  Inner_Iter|    rms[Rho]|   rms[RhoU]|   rms[RhoV]|   rms[RhoE]|          CD|          CL|         CMz|   LinSolRes|
+--------------------------------------------------------------------------------------------------------------------+
|        3125|   -7.933089|   -7.301767|   -7.710679|   -7.560355|    0.154199|    2.134247|    0.867568|   -0.344303|
|        3150|   -7.935238|   -7.304583|   -7.712978|   -7.562485|    0.153625|    2.138349|    0.868584|   -0.340213|
|        3175|   -7.928554|   -7.306698|   -7.716823|   -7.554998|    0.153083|    2.142500|    0.869643|   -0.342079|
|        3200|   -7.928914|   -7.309404|   -7.716341|   -7.555353|    0.152523|    2.146609|    0.870669|   -0.349037|
+-----------------------------------------------------------------------+
|        File Writing Summary       |              Filename             |
+-----------------------------------------------------------------------+
|SU2 binary restart                 |restart.dat                        |
|Paraview                           |vol_solution.vtu                   |
|Paraview surface                   |surface.vtu                        |
+-----------------------------------------------------------------------+
+--------------------------------------------------------------------------------------------------------------------+
|  Inner_Iter|    rms[Rho]|   rms[RhoU]|   rms[RhoV]|   rms[RhoE]|          CD|          CL|         CMz|   LinSolRes|
+--------------------------------------------------------------------------------------------------------------------+
|        3225|   -7.940446|   -7.312361|   -7.717600|   -7.568396|    0.151961|    2.150684|    0.871688|   -0.345077|
|        3250|   -7.947943|   -7.315415|   -7.721672|   -7.576996|    0.151423|    2.154789|    0.872734|   -0.337769|
|        3275|   -7.938661|   -7.317756|   -7.721685|   -7.565547|    0.150881|    2.158862|    0.873765|   -0.343600|
|        3300|   -7.939253|   -7.320785|   -7.724268|   -7.566478|    0.150350|    2.162926|    0.874799|   -0.348028|
+-----------------------------------------------------------------------+
|        File Writing Summary       |              Filename             |
+-----------------------------------------------------------------------+
|SU2 binary restart                 |restart.dat                        |
|Paraview                           |vol_solution.vtu                   |
|Paraview surface                   |surface.vtu                        |
+-----------------------------------------------------------------------+
+--------------------------------------------------------------------------------------------------------------------+
|  Inner_Iter|    rms[Rho]|   rms[RhoU]|   rms[RhoV]|   rms[RhoE]|          CD|          CL|         CMz|   LinSolRes|
+--------------------------------------------------------------------------------------------------------------------+
|        3325|   -7.946265|   -7.323302|   -7.723364|   -7.574330|    0.149817|    2.166978|    0.875830|   -0.344959|
|        3350|   -7.957150|   -7.326470|   -7.728225|   -7.586745|    0.149296|    2.171017|    0.876866|   -0.333930|
|        3375|   -7.949844|   -7.327491|   -7.725634|   -7.578313|    0.148800|    2.175094|    0.877940|   -0.340067|
|        3400|   -7.936077|   -7.330055|   -7.724781|   -7.562539|    0.148295|    2.179149|    0.878986|   -0.355334|
+-----------------------------------------------------------------------+
|        File Writing Summary       |              Filename             |
+-----------------------------------------------------------------------+
|SU2 binary restart                 |restart.dat                        |
|Paraview                           |vol_solution.vtu                   |
|Paraview surface                   |surface.vtu                        |
+-----------------------------------------------------------------------+
+--------------------------------------------------------------------------------------------------------------------+
|  Inner_Iter|    rms[Rho]|   rms[RhoU]|   rms[RhoV]|   rms[RhoE]|          CD|          CL|         CMz|   LinSolRes|
+--------------------------------------------------------------------------------------------------------------------+
|        3425|   -7.957366|   -7.334241|   -7.726688|   -7.586826|    0.147767|    2.183133|    0.880000|   -0.350966|
|        3450|   -7.964550|   -7.337615|   -7.737950|   -7.594321|    0.147285|    2.187167|    0.881062|   -0.333329|
|        3475|   -7.958375|   -7.339879|   -7.736383|   -7.586755|    0.146793|    2.191176|    0.882116|   -0.339342|
|        3500|   -7.949529|   -7.340841|   -7.732707|   -7.577457|    0.146341|    2.195223|    0.883213|   -0.355454|
+-----------------------------------------------------------------------+
|        File Writing Summary       |              Filename             |
+-----------------------------------------------------------------------+
|SU2 binary restart                 |restart.dat                        |
|Paraview                           |vol_solution.vtu                   |
|Paraview surface                   |surface.vtu                        |
+-----------------------------------------------------------------------+
+--------------------------------------------------------------------------------------------------------------------+
|  Inner_Iter|    rms[Rho]|   rms[RhoU]|   rms[RhoV]|   rms[RhoE]|          CD|          CL|         CMz|   LinSolRes|
+--------------------------------------------------------------------------------------------------------------------+
|        3525|   -7.958662|   -7.342251|   -7.724894|   -7.588235|    0.145868|    2.199233|    0.884272|   -0.346074|
|        3550|   -7.968472|   -7.347222|   -7.733964|   -7.598774|    0.145377|    2.203174|    0.885293|   -0.333383|
|        3575|   -7.966811|   -7.351356|   -7.746210|   -7.595655|    0.144928|    2.207150|    0.886363|   -0.338046|
|        3600|   -7.959508|   -7.354814|   -7.750560|   -7.587059|    0.144482|    2.211120|    0.887434|   -0.354739|
+-----------------------------------------------------------------------+
|        File Writing Summary       |              Filename             |
+-----------------------------------------------------------------------+
|SU2 binary restart                 |restart.dat                        |
|Paraview                           |vol_solution.vtu                   |
|Paraview surface                   |surface.vtu                        |
+-----------------------------------------------------------------------+
+--------------------------------------------------------------------------------------------------------------------+
|  Inner_Iter|    rms[Rho]|   rms[RhoU]|   rms[RhoV]|   rms[RhoE]|          CD|          CL|         CMz|   LinSolRes|
+--------------------------------------------------------------------------------------------------------------------+
|        3625|   -7.974245|   -7.356791|   -7.738879|   -7.604952|    0.144045|    2.215061|    0.888499|   -0.344538|
|        3650|   -7.974160|   -7.358653|   -7.739440|   -7.604906|    0.143607|    2.218995|    0.889562|   -0.334648|
|        3675|   -7.973087|   -7.363059|   -7.744259|   -7.602539|    0.143168|    2.222885|    0.890604|   -0.332721|
|        3700|   -7.970662|   -7.368752|   -7.757755|   -7.598945|    0.142745|    2.226750|    0.891647|   -0.355148|
+-----------------------------------------------------------------------+
|        File Writing Summary       |              Filename             |
+-----------------------------------------------------------------------+
|SU2 binary restart                 |restart.dat                        |
|Paraview                           |vol_solution.vtu                   |
|Paraview surface                   |surface.vtu                        |
+-----------------------------------------------------------------------+
+--------------------------------------------------------------------------------------------------------------------+
|  Inner_Iter|    rms[Rho]|   rms[RhoU]|   rms[RhoV]|   rms[RhoE]|          CD|          CL|         CMz|   LinSolRes|
+--------------------------------------------------------------------------------------------------------------------+
|        3725|   -7.987516|   -7.373523|   -7.761243|   -7.617921|    0.142327|    2.230621|    0.892700|   -0.342063|
|        3750|   -7.986502|   -7.377442|   -7.760015|   -7.617042|    0.141921|    2.234438|    0.893740|   -0.334813|
|        3775|   -7.986635|   -7.381527|   -7.759412|   -7.616514|    0.141515|    2.238248|    0.894777|   -0.330417|
|        3800|   -7.984206|   -7.386383|   -7.766354|   -7.613099|    0.141130|    2.242030|    0.895820|   -0.352081|
+-----------------------------------------------------------------------+
|        File Writing Summary       |              Filename             |
+-----------------------------------------------------------------------+
|SU2 binary restart                 |restart.dat                        |
|Paraview                           |vol_solution.vtu                   |
|Paraview surface                   |surface.vtu                        |
+-----------------------------------------------------------------------+
+--------------------------------------------------------------------------------------------------------------------+
|  Inner_Iter|    rms[Rho]|   rms[RhoU]|   rms[RhoV]|   rms[RhoE]|          CD|          CL|         CMz|   LinSolRes|
+--------------------------------------------------------------------------------------------------------------------+
|        3825|   -7.999680|   -7.390835|   -7.768318|   -7.630868|    0.140758|    2.245813|    0.896869|   -0.340387|
|        3850|   -7.992575|   -7.395340|   -7.768914|   -7.622573|    0.140401|    2.249564|    0.897910|   -0.337476|
|        3875|   -8.003296|   -7.400515|   -7.773000|   -7.634307|    0.140029|    2.253275|    0.898935|   -0.330256|
|        3900|   -8.002781|   -7.406938|   -7.783026|   -7.632739|    0.139678|    2.256961|    0.899961|   -0.350619|
+-----------------------------------------------------------------------+
|        File Writing Summary       |              Filename             |
+-----------------------------------------------------------------------+
|SU2 binary restart                 |restart.dat                        |
|Paraview                           |vol_solution.vtu                   |
|Paraview surface                   |surface.vtu                        |
+-----------------------------------------------------------------------+
+--------------------------------------------------------------------------------------------------------------------+
|  Inner_Iter|    rms[Rho]|   rms[RhoU]|   rms[RhoV]|   rms[RhoE]|          CD|          CL|         CMz|   LinSolRes|
+--------------------------------------------------------------------------------------------------------------------+
|        3925|   -8.015524|   -7.412394|   -7.785519|   -7.647118|    0.139338|    2.260607|    0.900978|   -0.335214|
|        3950|   -8.017461|   -7.417888|   -7.788566|   -7.648803|    0.139006|    2.264251|    0.902000|   -0.337983|
|        3975|   -8.021583|   -7.423365|   -7.791482|   -7.653184|    0.138679|    2.267836|    0.903003|   -0.338052|
|        4000|   -8.026874|   -7.429083|   -7.796961|   -7.658714|    0.138371|    2.271413|    0.904015|   -0.338269|
+-----------------------------------------------------------------------+
|        File Writing Summary       |              Filename             |
+-----------------------------------------------------------------------+
|SU2 binary restart                 |restart.dat                        |
|Paraview                           |vol_solution.vtu                   |
|Paraview surface                   |surface.vtu                        |
+-----------------------------------------------------------------------+
+--------------------------------------------------------------------------------------------------------------------+
|  Inner_Iter|    rms[Rho]|   rms[RhoU]|   rms[RhoV]|   rms[RhoE]|          CD|          CL|         CMz|   LinSolRes|
+--------------------------------------------------------------------------------------------------------------------+
|        4025|   -8.030822|   -7.434807|   -7.801335|   -7.662619|    0.138069|    2.274954|    0.905016|   -0.339532|
|        4050|   -8.033348|   -7.440114|   -7.804203|   -7.665142|    0.137792|    2.278461|    0.906020|   -0.340812|
|        4075|   -8.036851|   -7.445633|   -7.807585|   -7.668710|    0.137508|    2.281930|    0.907006|   -0.342812|
|        4100|   -8.040729|   -7.452802|   -7.813457|   -7.672381|    0.137238|    2.285350|    0.907978|   -0.343317|
+-----------------------------------------------------------------------+
|        File Writing Summary       |              Filename             |
+-----------------------------------------------------------------------+
|SU2 binary restart                 |restart.dat                        |
|Paraview                           |vol_solution.vtu                   |
|Paraview surface                   |surface.vtu                        |
+-----------------------------------------------------------------------+
+--------------------------------------------------------------------------------------------------------------------+
|  Inner_Iter|    rms[Rho]|   rms[RhoU]|   rms[RhoV]|   rms[RhoE]|          CD|          CL|         CMz|   LinSolRes|
+--------------------------------------------------------------------------------------------------------------------+
|        4125|   -8.050038|   -7.459665|   -7.823727|   -7.682184|    0.136981|    2.288719|    0.908942|   -0.343557|
|        4150|   -8.054728|   -7.466258|   -7.829064|   -7.686748|    0.136749|    2.292087|    0.909916|   -0.344063|
|        4175|   -8.061245|   -7.472806|   -7.831308|   -7.693771|    0.136508|    2.295372|    0.910857|   -0.347163|
|        4200|   -8.068894|   -7.479217|   -7.838035|   -7.701987|    0.136296|    2.298635|    0.911807|   -0.347493|
+-----------------------------------------------------------------------+
|        File Writing Summary       |              Filename             |
+-----------------------------------------------------------------------+
|SU2 binary restart                 |restart.dat                        |
|Paraview                           |vol_solution.vtu                   |
|Paraview surface                   |surface.vtu                        |
+-----------------------------------------------------------------------+
+--------------------------------------------------------------------------------------------------------------------+
|  Inner_Iter|    rms[Rho]|   rms[RhoU]|   rms[RhoV]|   rms[RhoE]|          CD|          CL|         CMz|   LinSolRes|
+--------------------------------------------------------------------------------------------------------------------+
|        4225|   -8.075811|   -7.486538|   -7.845101|   -7.709004|    0.136090|    2.301838|    0.912731|   -0.345755|
|        4250|   -8.077301|   -7.494043|   -7.849859|   -7.709834|    0.135901|    2.304980|    0.913643|   -0.342226|
|        4275|   -8.091716|   -7.501791|   -7.860181|   -7.725734|    0.135724|    2.308100|    0.914555|   -0.349077|
|        4300|   -8.097551|   -7.509675|   -7.864488|   -7.731592|    0.135569|    2.311148|    0.915445|   -0.344493|
+-----------------------------------------------------------------------+
|        File Writing Summary       |              Filename             |
+-----------------------------------------------------------------------+
|SU2 binary restart                 |restart.dat                        |
|Paraview                           |vol_solution.vtu                   |
|Paraview surface                   |surface.vtu                        |
+-----------------------------------------------------------------------+
+--------------------------------------------------------------------------------------------------------------------+
|  Inner_Iter|    rms[Rho]|   rms[RhoU]|   rms[RhoV]|   rms[RhoE]|          CD|          CL|         CMz|   LinSolRes|
+--------------------------------------------------------------------------------------------------------------------+
|        4325|   -8.103613|   -7.518138|   -7.872428|   -7.737656|    0.135402|    2.314114|    0.916301|   -0.347771|
|        4350|   -8.114119|   -7.526292|   -7.882002|   -7.748776|    0.135278|    2.317060|    0.917171|   -0.345826|
|        4375|   -8.127472|   -7.535446|   -7.891984|   -7.763158|    0.135159|    2.319929|    0.918009|   -0.352771|
|        4400|   -8.133515|   -7.543137|   -7.898246|   -7.769361|    0.135058|    2.322730|    0.918839|   -0.355439|
+-----------------------------------------------------------------------+
|        File Writing Summary       |              Filename             |
+-----------------------------------------------------------------------+
|SU2 binary restart                 |restart.dat                        |
|Paraview                           |vol_solution.vtu                   |
|Paraview surface                   |surface.vtu                        |
+-----------------------------------------------------------------------+
+--------------------------------------------------------------------------------------------------------------------+
|  Inner_Iter|    rms[Rho]|   rms[RhoU]|   rms[RhoV]|   rms[RhoE]|          CD|          CL|         CMz|   LinSolRes|
+--------------------------------------------------------------------------------------------------------------------+
|        4425|   -8.144803|   -7.551208|   -7.906265|   -7.781472|    0.134970|    2.325480|    0.919648|   -0.359323|
|        4450|   -8.150334|   -7.559432|   -7.912605|   -7.786808|    0.134896|    2.328140|    0.920432|   -0.353722|
|        4475|   -8.161559|   -7.567711|   -7.925292|   -7.798871|    0.134845|    2.330743|    0.921201|   -0.361865|
|        4500|   -8.178929|   -7.576889|   -7.937014|   -7.817771|    0.134814|    2.333299|    0.921957|   -0.368766|
+-----------------------------------------------------------------------+
|        File Writing Summary       |              Filename             |
+-----------------------------------------------------------------------+
|SU2 binary restart                 |restart.dat                        |
|Paraview                           |vol_solution.vtu                   |
|Paraview surface                   |surface.vtu                        |
+-----------------------------------------------------------------------+
+--------------------------------------------------------------------------------------------------------------------+
|  Inner_Iter|    rms[Rho]|   rms[RhoU]|   rms[RhoV]|   rms[RhoE]|          CD|          CL|         CMz|   LinSolRes|
+--------------------------------------------------------------------------------------------------------------------+
|        4525|   -8.191922|   -7.585747|   -7.948289|   -7.831586|    0.134782|    2.335738|    0.922670|   -0.373812|
|        4550|   -8.208277|   -7.593890|   -7.960166|   -7.849631|    0.134783|    2.338139|    0.923386|   -0.373232|
|        4575|   -8.213953|   -7.601217|   -7.969046|   -7.854855|    0.134802|    2.340432|    0.924066|   -0.380650|
|        4600|   -8.231411|   -7.608388|   -7.979381|   -7.874421|    0.134845|    2.342661|    0.924723|   -0.390089|
+-----------------------------------------------------------------------+
|        File Writing Summary       |              Filename             |
+-----------------------------------------------------------------------+
|SU2 binary restart                 |restart.dat                        |
|Paraview                           |vol_solution.vtu                   |
|Paraview surface                   |surface.vtu                        |
+-----------------------------------------------------------------------+
+--------------------------------------------------------------------------------------------------------------------+
|  Inner_Iter|    rms[Rho]|   rms[RhoU]|   rms[RhoV]|   rms[RhoE]|          CD|          CL|         CMz|   LinSolRes|
+--------------------------------------------------------------------------------------------------------------------+
|        4625|   -8.244034|   -7.614519|   -7.990122|   -7.887647|    0.134893|    2.344802|    0.925360|   -0.396478|
|        4650|   -8.253630|   -7.621063|   -8.002397|   -7.897699|    0.134975|    2.346867|    0.925971|   -0.406716|
|        4675|   -8.265760|   -7.626280|   -8.014769|   -7.911519|    0.135071|    2.348825|    0.926553|   -0.403372|
|        4700|   -8.271561|   -7.630997|   -8.028173|   -7.916568|    0.135195|    2.350715|    0.927113|   -0.423305|
+-----------------------------------------------------------------------+
|        File Writing Summary       |              Filename             |
+-----------------------------------------------------------------------+
|SU2 binary restart                 |restart.dat                        |
|Paraview                           |vol_solution.vtu                   |
|Paraview surface                   |surface.vtu                        |
+-----------------------------------------------------------------------+
+--------------------------------------------------------------------------------------------------------------------+
|  Inner_Iter|    rms[Rho]|   rms[RhoU]|   rms[RhoV]|   rms[RhoE]|          CD|          CL|         CMz|   LinSolRes|
+--------------------------------------------------------------------------------------------------------------------+
|        4725|   -8.290081|   -7.634757|   -8.041607|   -7.938112|    0.135322|    2.352497|    0.927634|   -0.444258|
|        4750|   -8.298765|   -7.637357|   -8.053049|   -7.947364|    0.135500|    2.354230|    0.928155|   -0.458441|
|        4775|   -8.325717|   -7.638554|   -8.066210|   -7.980525|    0.135681|    2.355857|    0.928628|   -0.464195|
|        4800|   -8.315033|   -7.637762|   -8.073155|   -7.964144|    0.135898|    2.357384|    0.929087|   -0.482277|
+-----------------------------------------------------------------------+
|        File Writing Summary       |              Filename             |
+-----------------------------------------------------------------------+
|SU2 binary restart                 |restart.dat                        |
|Paraview                           |vol_solution.vtu                   |
|Paraview surface                   |surface.vtu                        |
+-----------------------------------------------------------------------+
+--------------------------------------------------------------------------------------------------------------------+
|  Inner_Iter|    rms[Rho]|   rms[RhoU]|   rms[RhoV]|   rms[RhoE]|          CD|          CL|         CMz|   LinSolRes|
+--------------------------------------------------------------------------------------------------------------------+
|        4825|   -8.342022|   -7.636018|   -8.090622|   -7.998634|    0.136132|    2.358834|    0.929509|   -0.509487|
|        4850|   -8.352887|   -7.633174|   -8.103731|   -8.010447|    0.136396|    2.360200|    0.929911|   -0.548955|
|        4875|   -8.361713|   -7.627705|   -8.115142|   -8.020437|    0.136685|    2.361435|    0.930272|   -0.565817|
|        4900|   -8.366390|   -7.620667|   -8.123553|   -8.027555|    0.137010|    2.362633|    0.930628|   -0.590896|
+-----------------------------------------------------------------------+
|        File Writing Summary       |              Filename             |
+-----------------------------------------------------------------------+
|SU2 binary restart                 |restart.dat                        |
|Paraview                           |vol_solution.vtu                   |
|Paraview surface                   |surface.vtu                        |
+-----------------------------------------------------------------------+
+--------------------------------------------------------------------------------------------------------------------+
|  Inner_Iter|    rms[Rho]|   rms[RhoU]|   rms[RhoV]|   rms[RhoE]|          CD|          CL|         CMz|   LinSolRes|
+--------------------------------------------------------------------------------------------------------------------+
|        4925|   -8.379478|   -7.612212|   -8.131922|   -8.043201|    0.137356|    2.363723|    0.930936|   -0.632612|
|        4950|   -8.380333|   -7.601695|   -8.141232|   -8.045293|    0.137729|    2.364671|    0.931201|   -0.665007|
[...]
|  Inner_Iter|    rms[Rho]|   rms[RhoU]|   rms[RhoV]|   rms[RhoE]|          CD|          CL|         CMz|   LinSolRes|
+--------------------------------------------------------------------------------------------------------------------+
|       48625|   -8.213808|   -7.559977|   -8.028301|   -7.829331|    0.274858|    1.601880|    0.777474|   -0.345826|
|       48650|   -8.184163|   -7.540110|   -7.977808|   -7.800277|    0.274473|    1.603322|    0.777688|   -0.335511|
|       48675|   -8.176952|   -7.534439|   -7.963253|   -7.793975|    0.274078|    1.604765|    0.777882|   -0.333347|
|       48700|   -8.186451|   -7.540582|   -7.993620|   -7.803084|    0.273647|    1.606164|    0.778024|   -0.330851|
+-----------------------------------------------------------------------+
|        File Writing Summary       |              Filename             |
+-----------------------------------------------------------------------+
|SU2 binary restart                 |restart.dat                        |
|Paraview                           |vol_solution.vtu                   |
|Paraview surface                   |surface.vtu                        |
+-----------------------------------------------------------------------+
+--------------------------------------------------------------------------------------------------------------------+
|  Inner_Iter|    rms[Rho]|   rms[RhoU]|   rms[RhoV]|   rms[RhoE]|          CD|          CL|         CMz|   LinSolRes|
+--------------------------------------------------------------------------------------------------------------------+
|       48725|   -8.208923|   -7.549353|   -8.027752|   -7.825631|    0.273188|    1.607553|    0.778157|   -0.335538|
|       48750|   -8.203816|   -7.543961|   -8.027171|   -7.820135|    0.272788|    1.609011|    0.778366|   -0.340493|
|       48775|   -8.174970|   -7.531369|   -7.987012|   -7.790117|    0.272375|    1.610485|    0.778577|   -0.328629|
|       48800|   -8.175996|   -7.531411|   -7.974264|   -7.791475|    0.271918|    1.611846|    0.778700|   -0.339655|
+-----------------------------------------------------------------------+
|        File Writing Summary       |              Filename             |
+-----------------------------------------------------------------------+
|SU2 binary restart                 |restart.dat                        |
|Paraview                           |vol_solution.vtu                   |
|Paraview surface                   |surface.vtu                        |
+-----------------------------------------------------------------------+
+--------------------------------------------------------------------------------------------------------------------+
|  Inner_Iter|    rms[Rho]|   rms[RhoU]|   rms[RhoV]|   rms[RhoE]|          CD|          CL|         CMz|   LinSolRes|
+--------------------------------------------------------------------------------------------------------------------+
|       48825|   -8.189008|   -7.537507|   -8.006341|   -7.803886|    0.271475|    1.613225|    0.778841|   -0.340444|
|       48850|   -8.194315|   -7.540739|   -8.024273|   -7.807482|    0.271023|    1.614585|    0.778962|   -0.331071|
|       48875|   -8.196184|   -7.543209|   -8.023377|   -7.809635|    0.270543|    1.615897|    0.779041|   -0.340761|
|       48900|   -8.196587|   -7.538658|   -8.019775|   -7.810693|    0.270096|    1.617283|    0.779184|   -0.343315|
+-----------------------------------------------------------------------+
|        File Writing Summary       |              Filename             |
+-----------------------------------------------------------------------+
|SU2 binary restart                 |restart.dat                        |
|Paraview                           |vol_solution.vtu                   |
|Paraview surface                   |surface.vtu                        |
+-----------------------------------------------------------------------+
+--------------------------------------------------------------------------------------------------------------------+
|  Inner_Iter|    rms[Rho]|   rms[RhoU]|   rms[RhoV]|   rms[RhoE]|          CD|          CL|         CMz|   LinSolRes|
+--------------------------------------------------------------------------------------------------------------------+
|       48925|   -8.180471|   -7.526930|   -7.996563|   -7.794861|    0.269669|    1.618754|    0.779371|   -0.335555|
|       48950|   -8.170895|   -7.518787|   -7.970651|   -7.786986|    0.269225|    1.620225|    0.779546|   -0.336653|
|       48975|   -8.172263|   -7.515956|   -7.969064|   -7.789856|    0.268798|    1.621765|    0.779758|   -0.336987|
|       49000|   -8.164018|   -7.512914|   -7.973968|   -7.780279|    0.268353|    1.623294|    0.779958|   -0.334588|
+-----------------------------------------------------------------------+
|        File Writing Summary       |              Filename             |
+-----------------------------------------------------------------------+
|SU2 binary restart                 |restart.dat                        |
|Paraview                           |vol_solution.vtu                   |
|Paraview surface                   |surface.vtu                        |
+-----------------------------------------------------------------------+
+--------------------------------------------------------------------------------------------------------------------+
|  Inner_Iter|    rms[Rho]|   rms[RhoU]|   rms[RhoV]|   rms[RhoE]|          CD|          CL|         CMz|   LinSolRes|
+--------------------------------------------------------------------------------------------------------------------+
|       49025|   -8.166281|   -7.514563|   -7.981999|   -7.782272|    0.267892|    1.624802|    0.780133|   -0.336792|
|       49050|   -8.170253|   -7.516089|   -7.994488|   -7.785203|    0.267412|    1.626241|    0.780262|   -0.338174|
|       49075|   -8.172373|   -7.520251|   -8.005275|   -7.785945|    0.266905|    1.627619|    0.780342|   -0.335656|
|       49100|   -8.185370|   -7.523757|   -8.014478|   -7.799279|    0.266386|    1.628982|    0.780410|   -0.344959|
+-----------------------------------------------------------------------+
|        File Writing Summary       |              Filename             |
+-----------------------------------------------------------------------+
|SU2 binary restart                 |restart.dat                        |
|Paraview                           |vol_solution.vtu                   |
|Paraview surface                   |surface.vtu                        |
+-----------------------------------------------------------------------+
+--------------------------------------------------------------------------------------------------------------------+
|  Inner_Iter|    rms[Rho]|   rms[RhoU]|   rms[RhoV]|   rms[RhoE]|          CD|          CL|         CMz|   LinSolRes|
+--------------------------------------------------------------------------------------------------------------------+
|       49125|   -8.175706|   -7.513194|   -7.999022|   -7.789487|    0.265931|    1.630462|    0.780588|   -0.345596|
|       49150|   -8.149722|   -7.498681|   -7.955059|   -7.763150|    0.265473|    1.631979|    0.780752|   -0.335247|
|       49175|   -8.146464|   -7.499103|   -7.946438|   -7.760684|    0.264955|    1.633397|    0.780825|   -0.341724|
|       49200|   -8.163382|   -7.501067|   -7.982278|   -7.778437|    0.264460|    1.634920|    0.780960|   -0.340137|
+-----------------------------------------------------------------------+
|        File Writing Summary       |              Filename             |
+-----------------------------------------------------------------------+
|SU2 binary restart                 |restart.dat                        |
|Paraview                           |vol_solution.vtu                   |
|Paraview surface                   |surface.vtu                        |
+-----------------------------------------------------------------------+
+--------------------------------------------------------------------------------------------------------------------+
|  Inner_Iter|    rms[Rho]|   rms[RhoU]|   rms[RhoV]|   rms[RhoE]|          CD|          CL|         CMz|   LinSolRes|
+--------------------------------------------------------------------------------------------------------------------+
|       49225|   -8.155300|   -7.494807|   -7.977848|   -7.771048|    0.263985|    1.636536|    0.781156|   -0.335711|
|       49250|   -8.140924|   -7.482045|   -7.944495|   -7.758818|    0.263524|    1.638218|    0.781395|   -0.339262|
|       49275|   -8.120974|   -7.470808|   -7.913645|   -7.738309|    0.263065|    1.639961|    0.781657|   -0.334942|
|       49300|   -8.120894|   -7.472816|   -7.922898|   -7.737917|    0.262566|    1.641605|    0.781832|   -0.337503|
+-----------------------------------------------------------------------+
|        File Writing Summary       |              Filename             |
+-----------------------------------------------------------------------+
|SU2 binary restart                 |restart.dat                        |
|Paraview                           |vol_solution.vtu                   |
|Paraview surface                   |surface.vtu                        |
+-----------------------------------------------------------------------+
+--------------------------------------------------------------------------------------------------------------------+
|  Inner_Iter|    rms[Rho]|   rms[RhoU]|   rms[RhoV]|   rms[RhoE]|          CD|          CL|         CMz|   LinSolRes|
+--------------------------------------------------------------------------------------------------------------------+
|       49325|   -8.134776|   -7.479370|   -7.956839|   -7.750381|    0.262026|    1.643197|    0.781962|   -0.337362|
|       49350|   -8.143974|   -7.485527|   -7.978689|   -7.758599|    0.261493|    1.644801|    0.782104|   -0.343548|
|       49375|   -8.141596|   -7.480911|   -7.971650|   -7.755965|    0.260970|    1.646388|    0.782243|   -0.343212|
|       49400|   -8.123145|   -7.472230|   -7.944450|   -7.736909|    0.260448|    1.648039|    0.782412|   -0.336843|
+-----------------------------------------------------------------------+
|        File Writing Summary       |              Filename             |
+-----------------------------------------------------------------------+
|SU2 binary restart                 |restart.dat                        |
|Paraview                           |vol_solution.vtu                   |
|Paraview surface                   |surface.vtu                        |
+-----------------------------------------------------------------------+
+--------------------------------------------------------------------------------------------------------------------+
|  Inner_Iter|    rms[Rho]|   rms[RhoU]|   rms[RhoV]|   rms[RhoE]|          CD|          CL|         CMz|   LinSolRes|
+--------------------------------------------------------------------------------------------------------------------+
|       49425|   -8.124006|   -7.468529|   -7.935977|   -7.739358|    0.259914|    1.649690|    0.782565|   -0.347787|
|       49450|   -8.118484|   -7.458927|   -7.929133|   -7.735100|    0.259429|    1.651469|    0.782811|   -0.338142|
|       49475|   -8.106940|   -7.450134|   -7.906560|   -7.724290|    0.258948|    1.653346|    0.783099|   -0.336820|
|       49500|   -8.099082|   -7.445642|   -7.896183|   -7.716770|    0.258435|    1.655154|    0.783324|   -0.334637|
+-----------------------------------------------------------------------+
|        File Writing Summary       |              Filename             |
+-----------------------------------------------------------------------+
|SU2 binary restart                 |restart.dat                        |
|Paraview                           |vol_solution.vtu                   |
|Paraview surface                   |surface.vtu                        |
+-----------------------------------------------------------------------+
+--------------------------------------------------------------------------------------------------------------------+
|  Inner_Iter|    rms[Rho]|   rms[RhoU]|   rms[RhoV]|   rms[RhoE]|          CD|          CL|         CMz|   LinSolRes|
+--------------------------------------------------------------------------------------------------------------------+
|       49525|   -8.099333|   -7.447909|   -7.914595|   -7.715592|    0.257893|    1.656949|    0.783518|   -0.331167|
|       49550|   -8.111207|   -7.454572|   -7.943585|   -7.727073|    0.257316|    1.658682|    0.783668|   -0.344233|
|       49575|   -8.112854|   -7.449973|   -7.942314|   -7.729030|    0.256790|    1.660486|    0.783898|   -0.344568|
|       49600|   -8.092271|   -7.441281|   -7.909806|   -7.707269|    0.256256|    1.662323|    0.784129|   -0.336160|
+-----------------------------------------------------------------------+
|        File Writing Summary       |              Filename             |
+-----------------------------------------------------------------------+
|SU2 binary restart                 |restart.dat                        |
|Paraview                           |vol_solution.vtu                   |
|Paraview surface                   |surface.vtu                        |
+-----------------------------------------------------------------------+
+--------------------------------------------------------------------------------------------------------------------+
|  Inner_Iter|    rms[Rho]|   rms[RhoU]|   rms[RhoV]|   rms[RhoE]|          CD|          CL|         CMz|   LinSolRes|
+--------------------------------------------------------------------------------------------------------------------+
|       49625|   -8.089422|   -7.440378|   -7.896566|   -7.704512|    0.255687|    1.664061|    0.784280|   -0.342310|
|       49650|   -8.094475|   -7.440679|   -7.922268|   -7.708677|    0.255130|    1.665831|    0.784454|   -0.337830|
|       49675|   -8.097163|   -7.442874|   -7.932118|   -7.711189|    0.254553|    1.667604|    0.784600|   -0.335304|
|       49700|   -8.102308|   -7.440908|   -7.927741|   -7.718094|    0.253970|    1.669383|    0.784763|   -0.340486|
+-----------------------------------------------------------------------+
|        File Writing Summary       |              Filename             |
+-----------------------------------------------------------------------+
|SU2 binary restart                 |restart.dat                        |
|Paraview                           |vol_solution.vtu                   |
|Paraview surface                   |surface.vtu                        |
+-----------------------------------------------------------------------+
+--------------------------------------------------------------------------------------------------------------------+
|  Inner_Iter|    rms[Rho]|   rms[RhoU]|   rms[RhoV]|   rms[RhoE]|          CD|          CL|         CMz|   LinSolRes|
+--------------------------------------------------------------------------------------------------------------------+
|       49725|   -8.088319|   -7.427804|   -7.905880|   -7.704610|    0.253456|    1.671357|    0.785064|   -0.335680|
|       49750|   -8.066252|   -7.415424|   -7.868544|   -7.682166|    0.252914|    1.673310|    0.785314|   -0.332979|
|       49775|   -8.066881|   -7.417886|   -7.872679|   -7.683663|    0.252341|    1.675221|    0.785520|   -0.342330|
|       49800|   -8.077668|   -7.419108|   -7.899762|   -7.694198|    0.251779|    1.677188|    0.785761|   -0.340699|
+-----------------------------------------------------------------------+
|        File Writing Summary       |              Filename             |
+-----------------------------------------------------------------------+
|SU2 binary restart                 |restart.dat                        |
|Paraview                           |vol_solution.vtu                   |
|Paraview surface                   |surface.vtu                        |
+-----------------------------------------------------------------------+
+--------------------------------------------------------------------------------------------------------------------+
|  Inner_Iter|    rms[Rho]|   rms[RhoU]|   rms[RhoV]|   rms[RhoE]|          CD|          CL|         CMz|   LinSolRes|
+--------------------------------------------------------------------------------------------------------------------+
|       49825|   -8.067818|   -7.419241|   -7.904620|   -7.682303|    0.251183|    1.679104|    0.785954|   -0.336587|
|       49850|   -8.071767|   -7.420977|   -7.902545|   -7.686841|    0.250561|    1.680989|    0.786110|   -0.341616|
|       49875|   -8.069880|   -7.414881|   -7.903900|   -7.684633|    0.249987|    1.682960|    0.786346|   -0.341043|
|       49900|   -8.053949|   -7.406058|   -7.880111|   -7.668604|    0.249401|    1.684972|    0.786582|   -0.331541|
+-----------------------------------------------------------------------+
|        File Writing Summary       |              Filename             |
+-----------------------------------------------------------------------+
|SU2 binary restart                 |restart.dat                        |
|Paraview                           |vol_solution.vtu                   |
|Paraview surface                   |surface.vtu                        |
+-----------------------------------------------------------------------+
+--------------------------------------------------------------------------------------------------------------------+
|  Inner_Iter|    rms[Rho]|   rms[RhoU]|   rms[RhoV]|   rms[RhoE]|          CD|          CL|         CMz|   LinSolRes|
+--------------------------------------------------------------------------------------------------------------------+
|       49925|   -8.054235|   -7.402677|   -7.864594|   -7.670542|    0.248808|    1.687004|    0.786812|   -0.338179|
|       49950|   -8.053665|   -7.395917|   -7.867378|   -7.670883|    0.248246|    1.689149|    0.787129|   -0.339538|
|       49975|   -8.037006|   -7.386433|   -7.850223|   -7.654019|    0.247686|    1.691366|    0.787466|   -0.330366|
|       49999|   -8.025458|   -7.384915|   -7.840998|   -7.641837|    0.247100|    1.693400|    0.787705|   -0.334931|

----------------------------- Solver Exit -------------------------------

Maximum number of iterations reached (ITER = 50000) before convergence.
+-----------------------------------------------------------------------+
|      Convergence Field     |     Value    |   Criterion  |  Converged |
+-----------------------------------------------------------------------+
|                  Cauchy[CL]|   4.57738e-05|       < 5e-07|          No|
+-----------------------------------------------------------------------+
-------------------------------------------------------------------------
+-----------------------------------------------------------------------+
|        File Writing Summary       |              Filename             |
+-----------------------------------------------------------------------+
|SU2 binary restart                 |restart.dat                        |
|Paraview                           |vol_solution.vtu                   |
|Paraview surface                   |surface.vtu                        |
+-----------------------------------------------------------------------+

------------------------- Solver Postprocessing -------------------------
Deleted CNumerics container.
Deleted CIntegration container.
Deleted CSolver container.
Deleted CIteration container.
Deleted CInterface container.
Deleted CGeometry container.
Deleted CFreeFormDefBox class.
Deleted CSurfaceMovement class.
Deleted CVolumetricMovement class.
Deleted CConfig container.
Deleted nInst container.
Deleted COutput class.
-------------------------------------------------------------------------

------------------------- Exit Success (SU2_CFD) ------------------------

