WARNING: The current SST-1994m model is inconsistent with literature. We recommend using the SST-2003m model.
In SU2 v8 the 2003m model will become default, and the inconsistency will be fixed.

-------------------------------------------------------------------------
|    ___ _   _ ___                                                      |
|   / __| | | |_  )   Release 7.4.0 "Blackbird"                         |
|   \__ \ |_| |/ /                                                      |
|   |___/\___//___|   Suite (Computational Fluid Dynamics Code)         |
|                                                                       |
-------------------------------------------------------------------------
| SU2 Project Website: https://su2code.github.io                        |
|                                                                       |
| The SU2 Project is maintained by the SU2 Foundation                   |
| (http://su2foundation.org)                                            |
-------------------------------------------------------------------------
| Copyright 2012-2022, SU2 Contributors                                 |
|                                                                       |
| SU2 is free software; you can redistribute it and/or                  |
| modify it under the terms of the GNU Lesser General Public            |
| License as published by the Free Software Foundation; either          |
| version 2.1 of the License, or (at your option) any later version.    |
|                                                                       |
| SU2 is distributed in the hope that it will be useful,                |
| but WITHOUT ANY WARRANTY; without even the implied warranty of        |
| MERCHANTABILITY or FITNESS FOR A PARTICULAR PURPOSE. See the GNU      |
| Lesser General Public License for more details.                       |
|                                                                       |
| You should have received a copy of the GNU Lesser General Public      |
| License along with SU2. If not, see <http://www.gnu.org/licenses/>.   |
-------------------------------------------------------------------------
WARNING: The current SST-1994m model is inconsistent with literature. We recommend using the SST-2003m model.
In SU2 v8 the 2003m model will become default, and the inconsistency will be fixed.

Parsing config file for zone 0
WARNING: The current SST-1994m model is inconsistent with literature. We recommend using the SST-2003m model.
In SU2 v8 the 2003m model will become default, and the inconsistency will be fixed.

----------------- Physical Case Definition ( Zone 0 ) -------------------
Compressible RANS equations.
Turbulence model: Menter's k-omega SST-1994m with no production modification.
Hybrid RANS/LES: No Hybrid RANS/LES
Mach number: 0.78.
Angle of attack (AoA): 1 deg, and angle of sideslip (AoS): 0 deg.
Reynolds number: 1.641e+07. Reference length 2.62.
Reading and writing binary SU2 native restart files.
Read flow solution from: solution_flow.
Non-Dimensional simulation (V=Mach, Rho=1.0, T=1.0 at the farfield).
The reference area is 2.62 m^2.
The semi-span will be computed using the max y(3D) value.
The reference length is 2.62 m.
Reference origin for moment evaluation is (0, 0, 0).
Surface(s) where the force coefficients are evaluated: wall.

Surface(s) plotted in the output file: wall.
Input mesh file name: su2meshEx.su2

--------------- Space Numerical Integration ( Zone 0 ) ------------------
Roe (with entropy fix = 1e-05) solver for the flow inviscid terms.
Standard Roe without low-dissipation function.
Second order integration in space, with slope limiter.
Van Albada slope-limiting method implemented by edges.
Scalar upwind solver for the turbulence model.
First order integration in space.
Average of gradients with correction (viscous flow terms).
Average of gradients with correction (viscous turbulence terms).
Gradient for upwind reconstruction: Green-Gauss.
Gradient for viscous and source terms: Green-Gauss.

--------------- Time Numerical Integration  ( Zone 0 ) ------------------
Local time stepping (steady state simulation).
Euler implicit method for the flow equations.
FGMRES is used for solving the linear system.
Using a ILU(0) preconditioning.
Convergence criteria of the linear solver: 0.2.
Max number of linear iterations: 4.
CFL adaptation. Factor down: 0.1, factor up: 1.2,
                lower limit: 25, upper limit: 1000,
                acceptable linear residual: 0.001.
Courant-Friedrichs-Lewy number:       25
Euler implicit time integration for the turbulence model.

------------------ Convergence Criteria  ( Zone 0 ) ---------------------
Maximum number of solver subiterations: 25000.
Begin convergence monitoring at iteration 10.
Residual minimum value: 1e-11.5.
Cauchy series min. value: 5e-07.
Number of Cauchy elements: 500.
Begin windowed time average at iteration 0.

-------------------- Output Information ( Zone 0 ) ----------------------
File writing frequency: 
+------------------------------------+
|                     File| Frequency|
+------------------------------------+
|                  RESTART|       100|
|                 PARAVIEW|       100|
|         SURFACE_PARAVIEW|       100|
+------------------------------------+
Writing the convergence history file every 1 inner iterations.
Writing the screen convergence history every 25 inner iterations.
The tabular file format is CSV (.csv).
Convergence history file name: history.
Forces breakdown file name: forces_breakdown.dat.
Surface file name: surface.
Volume file name: vol_solution.
Restart file name: restart.dat.

------------- Config File Boundary Information ( Zone 0 ) ---------------
+-----------------------------------------------------------------------+
|                        Marker Type|                        Marker Name|
+-----------------------------------------------------------------------+
|                          Far-field|                          far-field|
+-----------------------------------------------------------------------+
|                     Heat flux wall|                               wall|
+-----------------------------------------------------------------------+

-------------------- Output Preprocessing ( Zone 0 ) --------------------

WARNING: SURFACE_PRESSURE_DROP can only be computed for at least 2 surfaces (outlet, inlet, ...)

  Info: Ignoring the following screen output fields:
  RMS_NU_TILDE
Screen output fields: INNER_ITER, RMS_DENSITY, RMS_MOMENTUM-X, RMS_MOMENTUM-Y, RMS_ENERGY, DRAG, LIFT, MOMENT_Z, LINSOL_RESIDUAL
History output group(s): ITER, RMS_RES, AERO_COEFF
Convergence field(s): LIFT
Warning: No (valid) fields chosen for time convergence monitoring. Time convergence monitoring inactive.
Volume output fields: COORDINATES, SOLUTION, PRIMITIVE

------------------- Geometry Preprocessing ( Zone 0 ) -------------------
Two dimensional problem.
66420 grid points before partitioning.
66015 volume elements before partitioning.
2 surface markers.
405 boundary elements in index 0 (Marker = far-field).
405 boundary elements in index 1 (Marker = wall).
Executing the partitioning functions.
Building the graph adjacency structure.
Calling ParMETIS... graph partitioning complete (858 edge cuts).
Distributing ParMETIS coloring.
Rebalancing vertices.
Rebalancing volume element connectivity.
Rebalancing markers and surface elements.
68136 vertices including ghost points. 
66869 interior elements including halo cells. 
66869 quadrilaterals.
Establishing MPI communication patterns.
Setting point connectivity.
Renumbering points (Reverse Cuthill McKee Ordering).
Recomputing point connectivity.
Setting element connectivity.
Checking the numerical grid orientation.
All volume elements are correctly orientend.
All surface elements are correctly orientend.
Identifying edges and vertices.
Setting the control volume structure.
Area of the computational grid: 172535.
Searching for the closest normal neighbors to the surfaces.
Storing a mapping from global to local point index.
Compute the surface curvature.
Max K: 1084.38. Mean K: 3.5904. Standard deviation K: 49.7608.
Checking for periodicity.
Computing mesh quality statistics for the dual control volumes.
+--------------------------------------------------------------+
|           Mesh Quality Metric|        Minimum|        Maximum|
+--------------------------------------------------------------+
|    Orthogonality Angle (deg.)|        82.7694|             90|
|     CV Face Area Aspect Ratio|        1.00252|        12980.1|
|           CV Sub-Volume Ratio|              1|        2.23331|
+--------------------------------------------------------------+
Finding max control volume width.
Communicating number of neighbors.
Wetted area = 5.32649 m.
Area projection in the x-plane = 0.29702 m, y-plane = 2.61984 m.
Max. coordinate in the x-direction = 2.62 m, y-direction = 0.165086 m.
Min. coordinate in the x-direction = 0 m, y-direction = -0.119236 m.
Computing wall distances.

-------------------- Solver Preprocessing ( Zone 0 ) --------------------
Viscous flow: Computing pressure using the ideal gas law
based on the free-stream temperature and a density computed
from the Reynolds number.
Force coefficients computed using free-stream values.

-- Models:
+------------------------------------------------------------------------------+
|          Viscosity Model|        Conductivity Model|              Fluid Model|
+------------------------------------------------------------------------------+
|               SUTHERLAND|          CONSTANT_PRANDTL|             STANDARD_AIR|
+------------------------------------------------------------------------------+
-- Fluid properties:
+------------------------------------------------------------------------------+
|                  Name|    Dim. value|    Ref. value|      Unit|Non-dim. value|
+------------------------------------------------------------------------------+
|        Ref. Viscosity|     1.716e-05|       115.582|   N.s/m^2|   1.48466e-07|
|      Sutherland Temp.|        273.15|       219.907|         K|       1.24212|
|     Sutherland Const.|         110.4|       219.907|         K|      0.502031|
+------------------------------------------------------------------------------+
|        Prandtl (Lam.)|             -|             -|         -|          0.72|
|       Prandtl (Turb.)|             -|             -|         -|           0.9|
+------------------------------------------------------------------------------+
|          Gas Constant|       287.058|       401.881|  N.m/kg.K|      0.714286|
|      Spec. Heat Ratio|             -|             -|         -|           1.4|
+------------------------------------------------------------------------------+
-- Initial and free-stream conditions:
+------------------------------------------------------------------------------+
|                  Name|    Dim. value|    Ref. value|      Unit|Non-dim. value|
+------------------------------------------------------------------------------+
|       Static Pressure|       24543.1|       34360.4|        Pa|      0.714286|
|               Density|      0.388796|      0.388796|    kg/m^3|             1|
|           Temperature|       219.907|       219.907|         K|             1|
|          Total Energy|        184901|       88376.4|   m^2/s^2|        2.0922|
|            Velocity-X|       231.844|       297.282|       m/s|      0.779881|
|            Velocity-Y|       4.04686|       297.282|       m/s|     0.0136129|
|    Velocity Magnitude|        231.88|       297.282|       m/s|          0.78|
+------------------------------------------------------------------------------+
|             Viscosity|   1.43939e-05|       115.582|   N.s/m^2|   1.24534e-07|
|          Conductivity|             -|       46450.2|   W/m^2.K|             -|
|     Turb. Kin. Energy|       201.631|       88376.4|   m^2/s^2|     0.0022815|
|     Spec. Dissipation|        544629|       297.282|       1/s|       1832.03|
+------------------------------------------------------------------------------+
|           Mach Number|             -|             -|         -|          0.78|
|       Reynolds Number|             -|             -|         -|     1.641e+07|
+------------------------------------------------------------------------------+
Initialize Jacobian structure (Navier-Stokes). MG level: 0.
Initialize Jacobian structure (SST model).

------------------- Numerics Preprocessing ( Zone 0 ) -------------------

----------------- Integration Preprocessing ( Zone 0 ) ------------------

------------------- Iteration Preprocessing ( Zone 0 ) ------------------
Euler/Navier-Stokes/RANS fluid iteration.

------------------------------ Begin Solver -----------------------------

Simulation Run using the Single-zone Driver
WARNING: SU2 was not compiled for an AVX-capable architecture.
+--------------------------------------------------------------------------------------------------------------------+
|  Inner_Iter|    rms[Rho]|   rms[RhoU]|   rms[RhoV]|   rms[RhoE]|          CD|          CL|         CMz|   LinSolRes|
+--------------------------------------------------------------------------------------------------------------------+
|           0|   -2.828292|   -2.880241|   -2.714332|   -2.369691|    0.023232|    0.477148|    0.260211|   -1.088714|
|          25|   -4.344601|   -4.180113|   -4.550334|   -3.939459|    0.023581|    0.557284|    0.293123|   -0.848970|
|          50|   -4.725143|   -4.553603|   -4.845848|   -4.287061|    0.028005|    0.684921|    0.343871|   -0.975336|
|          75|   -5.064877|   -4.812242|   -5.093493|   -4.635785|    0.028599|    0.622155|    0.307742|   -0.626868|
|         100|   -5.219490|   -4.980750|   -5.278796|   -4.834209|    0.027610|    0.682432|    0.343664|   -0.954581|
+-----------------------------------------------------------------------+
|        File Writing Summary       |              Filename             |
+-----------------------------------------------------------------------+
|SU2 binary restart                 |restart.dat                        |
|Paraview                           |vol_solution.vtu                   |
|Paraview surface                   |surface.vtu                        |
+-----------------------------------------------------------------------+
+--------------------------------------------------------------------------------------------------------------------+
|  Inner_Iter|    rms[Rho]|   rms[RhoU]|   rms[RhoV]|   rms[RhoE]|          CD|          CL|         CMz|   LinSolRes|
+--------------------------------------------------------------------------------------------------------------------+
|         125|   -5.308259|   -5.243414|   -5.453128|   -4.954500|    0.025349|    0.684289|    0.341826|   -0.914682|
|         150|   -5.476696|   -5.497007|   -5.758559|   -5.106756|    0.027124|    0.686831|    0.338401|   -0.684447|
|         175|   -5.685881|   -5.816032|   -5.808590|   -5.349342|    0.027227|    0.685392|    0.332714|   -0.693454|
|         200|   -5.710917|   -5.788077|   -6.065775|   -5.367598|    0.025700|    0.673674|    0.326274|   -0.698434|
+-----------------------------------------------------------------------+
|        File Writing Summary       |              Filename             |
+-----------------------------------------------------------------------+
|SU2 binary restart                 |restart.dat                        |
|Paraview                           |vol_solution.vtu                   |
|Paraview surface                   |surface.vtu                        |
+-----------------------------------------------------------------------+
+--------------------------------------------------------------------------------------------------------------------+
|  Inner_Iter|    rms[Rho]|   rms[RhoU]|   rms[RhoV]|   rms[RhoE]|          CD|          CL|         CMz|   LinSolRes|
+--------------------------------------------------------------------------------------------------------------------+
|         225|   -5.679943|   -5.487302|   -6.125934|   -5.224453|    0.023962|    0.665343|    0.322649|   -0.956724|
|         250|   -5.839957|   -6.055358|   -6.104101|   -5.516917|    0.023673|    0.659800|    0.319983|   -0.892011|
|         275|   -5.894113|   -6.026092|   -6.249361|   -5.559814|    0.024027|    0.655436|    0.316273|   -0.739498|
|         300|   -5.560733|   -5.414915|   -6.180179|   -5.157106|    0.023807|    0.650314|    0.312458|   -0.897330|
+-----------------------------------------------------------------------+
|        File Writing Summary       |              Filename             |
+-----------------------------------------------------------------------+
|SU2 binary restart                 |restart.dat                        |
|Paraview                           |vol_solution.vtu                   |
|Paraview surface                   |surface.vtu                        |
+-----------------------------------------------------------------------+
+--------------------------------------------------------------------------------------------------------------------+
|  Inner_Iter|    rms[Rho]|   rms[RhoU]|   rms[RhoV]|   rms[RhoE]|          CD|          CL|         CMz|   LinSolRes|
+--------------------------------------------------------------------------------------------------------------------+
|         325|   -5.872181|   -5.899211|   -6.176296|   -5.500501|    0.022788|    0.644809|    0.309175|   -0.777846|
|         350|   -5.899725|   -6.048760|   -6.240158|   -5.574987|    0.021853|    0.639448|    0.306696|   -0.877233|
|         375|   -6.004374|   -6.156982|   -6.431702|   -5.664510|    0.021471|    0.634846|    0.304255|   -0.660787|
|         400|   -6.073607|   -6.408821|   -6.401365|   -5.760389|    0.021827|    0.630652|    0.301498|   -0.847334|
+-----------------------------------------------------------------------+
|        File Writing Summary       |              Filename             |
+-----------------------------------------------------------------------+
|SU2 binary restart                 |restart.dat                        |
|Paraview                           |vol_solution.vtu                   |
|Paraview surface                   |surface.vtu                        |
+-----------------------------------------------------------------------+
+--------------------------------------------------------------------------------------------------------------------+
|  Inner_Iter|    rms[Rho]|   rms[RhoU]|   rms[RhoV]|   rms[RhoE]|          CD|          CL|         CMz|   LinSolRes|
+--------------------------------------------------------------------------------------------------------------------+
|         425|   -6.046593|   -6.162363|   -6.363168|   -5.692069|    0.022192|    0.626147|    0.298486|   -0.900915|
|         450|   -6.209687|   -6.315596|   -6.607261|   -5.864644|    0.021961|    0.621794|    0.296491|   -1.115527|
|         475|   -6.268372|   -6.482862|   -6.511553|   -5.938957|    0.021147|    0.618126|    0.295826|   -0.685835|
|         500|   -6.387521|   -6.484310|   -6.755009|   -6.016323|    0.020816|    0.617228|    0.295964|   -0.701402|
+-----------------------------------------------------------------------+
|        File Writing Summary       |              Filename             |
+-----------------------------------------------------------------------+
|SU2 binary restart                 |restart.dat                        |
|Paraview                           |vol_solution.vtu                   |
|Paraview surface                   |surface.vtu                        |
+-----------------------------------------------------------------------+
+--------------------------------------------------------------------------------------------------------------------+
|  Inner_Iter|    rms[Rho]|   rms[RhoU]|   rms[RhoV]|   rms[RhoE]|          CD|          CL|         CMz|   LinSolRes|
+--------------------------------------------------------------------------------------------------------------------+
|         525|   -6.437473|   -6.558179|   -6.673431|   -6.072838|    0.021545|    0.616933|    0.294606|   -0.635148|
|         550|   -6.456909|   -6.727202|   -6.671187|   -6.129776|    0.021453|    0.615262|    0.294509|   -0.645862|
|         575|   -6.470848|   -6.600481|   -6.810811|   -6.117463|    0.021249|    0.616869|    0.296567|   -0.657656|
|         600|   -6.396304|   -6.601413|   -6.647954|   -6.073949|    0.021655|    0.619691|    0.297869|   -0.629419|
+-----------------------------------------------------------------------+
|        File Writing Summary       |              Filename             |
+-----------------------------------------------------------------------+
|SU2 binary restart                 |restart.dat                        |
|Paraview                           |vol_solution.vtu                   |
|Paraview surface                   |surface.vtu                        |
+-----------------------------------------------------------------------+
+--------------------------------------------------------------------------------------------------------------------+
|  Inner_Iter|    rms[Rho]|   rms[RhoU]|   rms[RhoV]|   rms[RhoE]|          CD|          CL|         CMz|   LinSolRes|
+--------------------------------------------------------------------------------------------------------------------+
|         625|   -6.384086|   -6.438267|   -6.747286|   -6.043201|    0.021995|    0.621550|    0.298471|   -0.603359|
|         650|   -6.422026|   -6.715047|   -6.798375|   -6.114771|    0.022087|    0.622814|    0.299177|   -0.960975|
|         675|   -6.413804|   -6.703449|   -6.687291|   -6.098858|    0.021997|    0.623925|    0.300194|   -1.092089|
|         700|   -6.497804|   -6.615556|   -6.815971|   -6.146683|    0.021961|    0.625464|    0.301440|   -1.054422|
+-----------------------------------------------------------------------+
|        File Writing Summary       |              Filename             |
+-----------------------------------------------------------------------+
|SU2 binary restart                 |restart.dat                        |
|Paraview                           |vol_solution.vtu                   |
|Paraview surface                   |surface.vtu                        |
+-----------------------------------------------------------------------+
+--------------------------------------------------------------------------------------------------------------------+
|  Inner_Iter|    rms[Rho]|   rms[RhoU]|   rms[RhoV]|   rms[RhoE]|          CD|          CL|         CMz|   LinSolRes|
+--------------------------------------------------------------------------------------------------------------------+
|         725|   -6.525710|   -6.797529|   -6.826781|   -6.213840|    0.022179|    0.627678|    0.302644|   -0.904701|
|         750|   -6.498172|   -6.732995|   -6.748806|   -6.172700|    0.022496|    0.629536|    0.303324|   -0.644381|
|         775|   -6.607869|   -6.713591|   -6.986378|   -6.260659|    0.022649|    0.630763|    0.303836|   -0.629107|
|         800|   -6.618920|   -6.915766|   -6.875340|   -6.305868|    0.022555|    0.631807|    0.304692|   -0.715960|
+-----------------------------------------------------------------------+
|        File Writing Summary       |              Filename             |
+-----------------------------------------------------------------------+
|SU2 binary restart                 |restart.dat                        |
|Paraview                           |vol_solution.vtu                   |
|Paraview surface                   |surface.vtu                        |
+-----------------------------------------------------------------------+
+--------------------------------------------------------------------------------------------------------------------+
|  Inner_Iter|    rms[Rho]|   rms[RhoU]|   rms[RhoV]|   rms[RhoE]|          CD|          CL|         CMz|   LinSolRes|
+--------------------------------------------------------------------------------------------------------------------+
|         825|   -6.665061|   -6.780282|   -6.932052|   -6.308944|    0.022463|    0.632821|    0.305498|   -1.082804|
|         850|   -6.765305|   -6.987639|   -6.958370|   -6.449249|    0.022628|    0.634374|    0.306050|   -0.776818|
|         875|   -6.804753|   -6.886390|   -7.060579|   -6.433593|    0.022827|    0.634750|    0.305777|   -0.941564|
|         900|   -6.797388|   -7.026305|   -7.041505|   -6.481034|    0.022687|    0.634189|    0.305628|   -0.627231|
+-----------------------------------------------------------------------+
|        File Writing Summary       |              Filename             |
+-----------------------------------------------------------------------+
|SU2 binary restart                 |restart.dat                        |
|Paraview                           |vol_solution.vtu                   |
|Paraview surface                   |surface.vtu                        |
+-----------------------------------------------------------------------+
+--------------------------------------------------------------------------------------------------------------------+
|  Inner_Iter|    rms[Rho]|   rms[RhoU]|   rms[RhoV]|   rms[RhoE]|          CD|          CL|         CMz|   LinSolRes|
+--------------------------------------------------------------------------------------------------------------------+
|         925|   -6.789319|   -6.919370|   -7.123603|   -6.444248|    0.022532|    0.633904|    0.305651|   -0.649641|
|         950|   -6.794772|   -7.099527|   -7.114768|   -6.485440|    0.022544|    0.633739|    0.305331|   -0.626609|
|         975|   -6.769949|   -6.925967|   -7.015897|   -6.433703|    0.022594|    0.633239|    0.304733|   -0.773336|
|        1000|   -6.806276|   -6.981115|   -7.177352|   -6.473192|    0.022563|    0.632445|    0.304167|   -1.009956|
+-----------------------------------------------------------------------+
|        File Writing Summary       |              Filename             |
+-----------------------------------------------------------------------+
|SU2 binary restart                 |restart.dat                        |
|Paraview                           |vol_solution.vtu                   |
|Paraview surface                   |surface.vtu                        |
+-----------------------------------------------------------------------+
+--------------------------------------------------------------------------------------------------------------------+
|  Inner_Iter|    rms[Rho]|   rms[RhoU]|   rms[RhoV]|   rms[RhoE]|          CD|          CL|         CMz|   LinSolRes|
+--------------------------------------------------------------------------------------------------------------------+
|        1025|   -6.752887|   -7.077044|   -7.072683|   -6.449340|    0.022431|    0.631336|    0.303640|   -0.614646|
|        1050|   -6.741305|   -7.005873|   -7.063705|   -6.426012|    0.022320|    0.630582|    0.303329|   -0.924636|
|        1075|   -6.763852|   -7.018590|   -7.235223|   -6.445779|    0.022254|    0.629940|    0.302985|   -0.857683|
|        1100|   -6.764337|   -7.152568|   -7.138402|   -6.468923|    0.022243|    0.629281|    0.302492|   -0.928497|
+-----------------------------------------------------------------------+
|        File Writing Summary       |              Filename             |
+-----------------------------------------------------------------------+
|SU2 binary restart                 |restart.dat                        |
|Paraview                           |vol_solution.vtu                   |
|Paraview surface                   |surface.vtu                        |
+-----------------------------------------------------------------------+
+--------------------------------------------------------------------------------------------------------------------+
|  Inner_Iter|    rms[Rho]|   rms[RhoU]|   rms[RhoV]|   rms[RhoE]|          CD|          CL|         CMz|   LinSolRes|
+--------------------------------------------------------------------------------------------------------------------+
|        1125|   -6.773092|   -7.079303|   -7.081097|   -6.461947|    0.022247|    0.628601|    0.301979|   -0.927026|
|        1150|   -6.788442|   -7.057833|   -7.222827|   -6.475159|    0.022221|    0.627788|    0.301467|   -0.738138|
|        1175|   -6.813975|   -7.168442|   -7.220416|   -6.518167|    0.022150|    0.626902|    0.301037|   -0.868089|
|        1200|   -6.838898|   -7.067585|   -7.148593|   -6.527095|    0.022059|    0.626129|    0.300712|   -0.838188|
+-----------------------------------------------------------------------+
|        File Writing Summary       |              Filename             |
+-----------------------------------------------------------------------+
|SU2 binary restart                 |restart.dat                        |
|Paraview                           |vol_solution.vtu                   |
|Paraview surface                   |surface.vtu                        |
+-----------------------------------------------------------------------+
+--------------------------------------------------------------------------------------------------------------------+
|  Inner_Iter|    rms[Rho]|   rms[RhoU]|   rms[RhoV]|   rms[RhoE]|          CD|          CL|         CMz|   LinSolRes|
+--------------------------------------------------------------------------------------------------------------------+
|        1225|   -6.889467|   -7.133543|   -7.351105|   -6.574991|    0.021996|    0.625488|    0.300407|   -0.753525|
|        1250|   -6.932677|   -7.257718|   -7.286542|   -6.631831|    0.021988|    0.624781|    0.299937|   -0.614435|
|        1275|   -7.004058|   -7.185669|   -7.361766|   -6.674978|    0.021993|    0.624132|    0.299527|   -0.675949|
|        1300|   -7.095545|   -7.326955|   -7.482355|   -6.783525|    0.021968|    0.623531|    0.299239|   -0.653468|
+-----------------------------------------------------------------------+
|        File Writing Summary       |              Filename             |
+-----------------------------------------------------------------------+
|SU2 binary restart                 |restart.dat                        |
|Paraview                           |vol_solution.vtu                   |
|Paraview surface                   |surface.vtu                        |
+-----------------------------------------------------------------------+
+--------------------------------------------------------------------------------------------------------------------+
|  Inner_Iter|    rms[Rho]|   rms[RhoU]|   rms[RhoV]|   rms[RhoE]|          CD|          CL|         CMz|   LinSolRes|
+--------------------------------------------------------------------------------------------------------------------+
|        1325|   -7.153096|   -7.348502|   -7.434478|   -6.828741|    0.021906|    0.622939|    0.299037|   -0.595293|
|        1350|   -7.267279|   -7.420689|   -7.702660|   -6.945997|    0.021879|    0.622636|    0.298912|   -0.612818|
|        1375|   -7.302723|   -7.490253|   -7.553437|   -6.979354|    0.021894|    0.622401|    0.298762|   -0.596897|
|        1400|   -7.470703|   -7.542052|   -7.830072|   -7.126397|    0.021912|    0.622160|    0.298640|   -1.015136|
+-----------------------------------------------------------------------+
|        File Writing Summary       |              Filename             |
+-----------------------------------------------------------------------+
|SU2 binary restart                 |restart.dat                        |
|Paraview                           |vol_solution.vtu                   |
|Paraview surface                   |surface.vtu                        |
+-----------------------------------------------------------------------+
+--------------------------------------------------------------------------------------------------------------------+
|  Inner_Iter|    rms[Rho]|   rms[RhoU]|   rms[RhoV]|   rms[RhoE]|          CD|          CL|         CMz|   LinSolRes|
+--------------------------------------------------------------------------------------------------------------------+
|        1425|   -7.487360|   -7.583559|   -7.686611|   -7.149158|    0.021901|    0.621994|    0.298632|   -0.597039|
|        1450|   -7.641025|   -7.646744|   -8.009109|   -7.292069|    0.021896|    0.621994|    0.298681|   -0.681659|
|        1475|   -7.638769|   -7.720375|   -7.843851|   -7.306264|    0.021918|    0.622059|    0.298727|   -0.726032|
|        1500|   -7.793530|   -7.759998|   -8.158846|   -7.456976|    0.021947|    0.622129|    0.298779|   -0.842616|
+-----------------------------------------------------------------------+
|        File Writing Summary       |              Filename             |
+-----------------------------------------------------------------------+
|SU2 binary restart                 |restart.dat                        |
|Paraview                           |vol_solution.vtu                   |
|Paraview surface                   |surface.vtu                        |
+-----------------------------------------------------------------------+
+--------------------------------------------------------------------------------------------------------------------+
|  Inner_Iter|    rms[Rho]|   rms[RhoU]|   rms[RhoV]|   rms[RhoE]|          CD|          CL|         CMz|   LinSolRes|
+--------------------------------------------------------------------------------------------------------------------+
|        1525|   -7.805789|   -7.779037|   -8.027974|   -7.466619|    0.021952|    0.622200|    0.298852|   -1.050860|
|        1550|   -7.913314|   -7.823191|   -8.254493|   -7.590161|    0.021953|    0.622278|    0.298917|   -0.938782|
|        1575|   -7.891495|   -7.829499|   -8.142200|   -7.576600|    0.021965|    0.622326|    0.298940|   -0.959451|
|        1600|   -7.921086|   -7.818685|   -8.293838|   -7.597266|    0.021977|    0.622326|    0.298930|   -0.629165|
+-----------------------------------------------------------------------+
|        File Writing Summary       |              Filename             |
+-----------------------------------------------------------------------+
|SU2 binary restart                 |restart.dat                        |
|Paraview                           |vol_solution.vtu                   |
|Paraview surface                   |surface.vtu                        |
+-----------------------------------------------------------------------+
+--------------------------------------------------------------------------------------------------------------------+
|  Inner_Iter|    rms[Rho]|   rms[RhoU]|   rms[RhoV]|   rms[RhoE]|          CD|          CL|         CMz|   LinSolRes|
+--------------------------------------------------------------------------------------------------------------------+
|        1625|   -7.832811|   -7.827142|   -8.286034|   -7.530534|    0.021979|    0.622290|    0.298907|   -0.688625|
|        1650|   -7.762130|   -7.829695|   -8.232746|   -7.467782|    0.021972|    0.622231|    0.298877|   -0.800821|
|        1675|   -7.715510|   -7.826905|   -8.233384|   -7.422594|    0.021964|    0.622159|    0.298839|   -0.845773|
|        1700|   -7.666677|   -7.832179|   -8.195748|   -7.377316|    0.021957|    0.622075|    0.298791|   -0.851543|
+-----------------------------------------------------------------------+
|        File Writing Summary       |              Filename             |
+-----------------------------------------------------------------------+
|SU2 binary restart                 |restart.dat                        |
|Paraview                           |vol_solution.vtu                   |
|Paraview surface                   |surface.vtu                        |
+-----------------------------------------------------------------------+
+--------------------------------------------------------------------------------------------------------------------+
|  Inner_Iter|    rms[Rho]|   rms[RhoU]|   rms[RhoV]|   rms[RhoE]|          CD|          CL|         CMz|   LinSolRes|
+--------------------------------------------------------------------------------------------------------------------+
|        1725|   -7.595203|   -7.838116|   -8.090794|   -7.307825|    0.021953|    0.621963|    0.298721|   -0.704533|
|        1750|   -7.548728|   -7.816862|   -8.019271|   -7.254592|    0.021949|    0.621798|    0.298614|   -0.625534|
|        1775|   -7.513166|   -7.816380|   -8.014583|   -7.227212|    0.021939|    0.621591|    0.298488|   -0.707215|
|        1800|   -7.499900|   -7.803151|   -7.982279|   -7.210729|    0.021927|    0.621411|    0.298385|   -0.808201|
+-----------------------------------------------------------------------+
|        File Writing Summary       |              Filename             |
+-----------------------------------------------------------------------+
|SU2 binary restart                 |restart.dat                        |
|Paraview                           |vol_solution.vtu                   |
|Paraview surface                   |surface.vtu                        |
+-----------------------------------------------------------------------+
+--------------------------------------------------------------------------------------------------------------------+
|  Inner_Iter|    rms[Rho]|   rms[RhoU]|   rms[RhoV]|   rms[RhoE]|          CD|          CL|         CMz|   LinSolRes|
+--------------------------------------------------------------------------------------------------------------------+
|        1825|   -7.471519|   -7.772810|   -7.924640|   -7.186199|    0.021913|    0.621223|    0.298281|   -0.711130|
|        1850|   -7.445679|   -7.809818|   -7.937534|   -7.157761|    0.021899|    0.621021|    0.298168|   -0.840985|
|        1875|   -7.466163|   -7.823592|   -7.962445|   -7.181070|    0.021888|    0.620801|    0.298041|   -0.865497|
|        1900|   -7.485066|   -7.808304|   -7.989236|   -7.198149|    0.021878|    0.620588|    0.297916|   -0.836413|
+-----------------------------------------------------------------------+
|        File Writing Summary       |              Filename             |
+-----------------------------------------------------------------------+
|SU2 binary restart                 |restart.dat                        |
|Paraview                           |vol_solution.vtu                   |
|Paraview surface                   |surface.vtu                        |
+-----------------------------------------------------------------------+
+--------------------------------------------------------------------------------------------------------------------+
|  Inner_Iter|    rms[Rho]|   rms[RhoU]|   rms[RhoV]|   rms[RhoE]|          CD|          CL|         CMz|   LinSolRes|
+--------------------------------------------------------------------------------------------------------------------+
|        1925|   -7.467173|   -7.801930|   -7.976949|   -7.179178|    0.021868|    0.620377|    0.297793|   -0.816675|
|        1950|   -7.430689|   -7.781904|   -7.902465|   -7.141440|    0.021854|    0.620144|    0.297661|   -0.745067|
|        1975|   -7.434079|   -7.772125|   -7.922704|   -7.144521|    0.021839|    0.619908|    0.297533|   -0.683702|
|        2000|   -7.451818|   -7.817719|   -7.961052|   -7.166497|    0.021823|    0.619652|    0.297395|   -0.835842|
+-----------------------------------------------------------------------+
|        File Writing Summary       |              Filename             |
+-----------------------------------------------------------------------+
|SU2 binary restart                 |restart.dat                        |
|Paraview                           |vol_solution.vtu                   |
|Paraview surface                   |surface.vtu                        |
+-----------------------------------------------------------------------+
+--------------------------------------------------------------------------------------------------------------------+
|  Inner_Iter|    rms[Rho]|   rms[RhoU]|   rms[RhoV]|   rms[RhoE]|          CD|          CL|         CMz|   LinSolRes|
+--------------------------------------------------------------------------------------------------------------------+
|        2025|   -7.454056|   -7.834734|   -7.970246|   -7.168782|    0.021811|    0.619442|    0.297281|   -0.843996|
|        2050|   -7.468876|   -7.863113|   -7.991992|   -7.182053|    0.021801|    0.619233|    0.297164|   -0.886465|
|        2075|   -7.492550|   -7.842487|   -8.006301|   -7.204973|    0.021792|    0.619028|    0.297049|   -0.739631|
|        2100|   -7.494269|   -7.673624|   -7.900650|   -7.217753|    0.021782|    0.618824|    0.296938|   -0.750845|
+-----------------------------------------------------------------------+
|        File Writing Summary       |              Filename             |
+-----------------------------------------------------------------------+
|SU2 binary restart                 |restart.dat                        |
|Paraview                           |vol_solution.vtu                   |
|Paraview surface                   |surface.vtu                        |
+-----------------------------------------------------------------------+
+--------------------------------------------------------------------------------------------------------------------+
|  Inner_Iter|    rms[Rho]|   rms[RhoU]|   rms[RhoV]|   rms[RhoE]|          CD|          CL|         CMz|   LinSolRes|
+--------------------------------------------------------------------------------------------------------------------+
|        2125|   -7.526267|   -7.896699|   -8.040445|   -7.240801|    0.021772|    0.618638|    0.296841|   -0.806637|
|        2150|   -7.554762|   -7.907095|   -8.062941|   -7.267451|    0.021761|    0.618451|    0.296747|   -0.792425|
|        2175|   -7.582506|   -7.900385|   -8.104840|   -7.298184|    0.021752|    0.618289|    0.296667|   -0.685456|
|        2200|   -7.646206|   -7.923031|   -8.185233|   -7.361453|    0.021746|    0.618134|    0.296588|   -0.681824|
+-----------------------------------------------------------------------+
|        File Writing Summary       |              Filename             |
+-----------------------------------------------------------------------+
|SU2 binary restart                 |restart.dat                        |
|Paraview                           |vol_solution.vtu                   |
|Paraview surface                   |surface.vtu                        |
+-----------------------------------------------------------------------+
+--------------------------------------------------------------------------------------------------------------------+
|  Inner_Iter|    rms[Rho]|   rms[RhoU]|   rms[RhoV]|   rms[RhoE]|          CD|          CL|         CMz|   LinSolRes|
+--------------------------------------------------------------------------------------------------------------------+
|        2225|   -7.718952|   -7.942073|   -8.222589|   -7.430973|    0.021742|    0.617985|    0.296509|   -0.695244|
|        2250|   -7.769142|   -7.991123|   -8.255794|   -7.482665|    0.021737|    0.617844|    0.296436|   -0.761310|
|        2275|   -7.804772|   -7.994811|   -8.261832|   -7.508432|    0.021732|    0.617711|    0.296373|   -0.842623|
|        2300|   -7.865521|   -8.035021|   -8.325358|   -7.577173|    0.021727|    0.617603|    0.296325|   -0.700137|
+-----------------------------------------------------------------------+
|        File Writing Summary       |              Filename             |
+-----------------------------------------------------------------------+
|SU2 binary restart                 |restart.dat                        |
|Paraview                           |vol_solution.vtu                   |
|Paraview surface                   |surface.vtu                        |
+-----------------------------------------------------------------------+
+--------------------------------------------------------------------------------------------------------------------+
|  Inner_Iter|    rms[Rho]|   rms[RhoU]|   rms[RhoV]|   rms[RhoE]|          CD|          CL|         CMz|   LinSolRes|
+--------------------------------------------------------------------------------------------------------------------+
|        2325|   -7.898556|   -8.050909|   -8.347469|   -7.611120|    0.021723|    0.617510|    0.296283|   -0.599609|
|        2350|   -7.934435|   -8.053762|   -8.342833|   -7.646639|    0.021722|    0.617432|    0.296246|   -0.659919|
|        2375|   -7.987425|   -8.048155|   -8.435523|   -7.694964|    0.021722|    0.617370|    0.296214|   -0.640914|
|        2400|   -8.032250|   -8.092518|   -8.524460|   -7.744859|    0.021720|    0.617297|    0.296179|   -0.671405|
+-----------------------------------------------------------------------+
|        File Writing Summary       |              Filename             |
+-----------------------------------------------------------------------+
|SU2 binary restart                 |restart.dat                        |
|Paraview                           |vol_solution.vtu                   |
|Paraview surface                   |surface.vtu                        |
+-----------------------------------------------------------------------+
+--------------------------------------------------------------------------------------------------------------------+
|  Inner_Iter|    rms[Rho]|   rms[RhoU]|   rms[RhoV]|   rms[RhoE]|          CD|          CL|         CMz|   LinSolRes|
+--------------------------------------------------------------------------------------------------------------------+
|        2425|   -8.056385|   -8.150441|   -8.545593|   -7.767339|    0.021717|    0.617231|    0.296150|   -0.602864|
|        2450|   -8.060802|   -8.152736|   -8.560478|   -7.765495|    0.021715|    0.617176|    0.296127|   -0.613995|
|        2475|   -8.066575|   -8.174075|   -8.597921|   -7.776661|    0.021714|    0.617130|    0.296106|   -0.596539|
|        2500|   -8.061534|   -8.212150|   -8.586981|   -7.778109|    0.021714|    0.617085|    0.296083|   -0.782299|
+-----------------------------------------------------------------------+
|        File Writing Summary       |              Filename             |
+-----------------------------------------------------------------------+
|SU2 binary restart                 |restart.dat                        |
|Paraview                           |vol_solution.vtu                   |
|Paraview surface                   |surface.vtu                        |
+-----------------------------------------------------------------------+
+--------------------------------------------------------------------------------------------------------------------+
|  Inner_Iter|    rms[Rho]|   rms[RhoU]|   rms[RhoV]|   rms[RhoE]|          CD|          CL|         CMz|   LinSolRes|
+--------------------------------------------------------------------------------------------------------------------+
|        2525|   -7.835226|   -8.039396|   -8.382424|   -7.584689|    0.021713|    0.617042|    0.296060|   -0.855562|
|        2550|   -8.088362|   -8.242364|   -8.610634|   -7.805264|    0.021712|    0.616999|    0.296037|   -0.882117|
|        2575|   -8.049372|   -8.227918|   -8.574488|   -7.766576|    0.021710|    0.616955|    0.296017|   -0.689862|
|        2600|   -8.032799|   -8.206468|   -8.547747|   -7.744258|    0.021708|    0.616912|    0.295996|   -0.791662|
+-----------------------------------------------------------------------+
|        File Writing Summary       |              Filename             |
+-----------------------------------------------------------------------+
|SU2 binary restart                 |restart.dat                        |
|Paraview                           |vol_solution.vtu                   |
|Paraview surface                   |surface.vtu                        |
+-----------------------------------------------------------------------+
+--------------------------------------------------------------------------------------------------------------------+
|  Inner_Iter|    rms[Rho]|   rms[RhoU]|   rms[RhoV]|   rms[RhoE]|          CD|          CL|         CMz|   LinSolRes|
+--------------------------------------------------------------------------------------------------------------------+
|        2625|   -8.022318|   -8.189732|   -8.547880|   -7.731945|    0.021706|    0.616868|    0.295975|   -0.701302|
|        2650|   -8.030989|   -8.222691|   -8.560358|   -7.745800|    0.021704|    0.616825|    0.295952|   -0.857706|
|        2675|   -8.034539|   -8.218262|   -8.543673|   -7.747188|    0.021703|    0.616782|    0.295928|   -0.784477|
|        2700|   -8.007959|   -8.208606|   -8.515168|   -7.717350|    0.021702|    0.616735|    0.295902|   -0.797398|
+-----------------------------------------------------------------------+
|        File Writing Summary       |              Filename             |
+-----------------------------------------------------------------------+
|SU2 binary restart                 |restart.dat                        |
|Paraview                           |vol_solution.vtu                   |
|Paraview surface                   |surface.vtu                        |
+-----------------------------------------------------------------------+
+--------------------------------------------------------------------------------------------------------------------+
|  Inner_Iter|    rms[Rho]|   rms[RhoU]|   rms[RhoV]|   rms[RhoE]|          CD|          CL|         CMz|   LinSolRes|
+--------------------------------------------------------------------------------------------------------------------+
|        2725|   -7.985751|   -8.203207|   -8.497705|   -7.697846|    0.021700|    0.616685|    0.295876|   -0.803944|
|        2750|   -7.959286|   -8.190108|   -8.474405|   -7.669068|    0.021697|    0.616634|    0.295849|   -0.819780|
|        2775|   -7.937113|   -8.182597|   -8.470217|   -7.652094|    0.021695|    0.616582|    0.295823|   -0.729373|
|        2800|   -7.908021|   -8.210176|   -8.442777|   -7.619248|    0.021692|    0.616530|    0.295795|   -0.725507|
+-----------------------------------------------------------------------+
|        File Writing Summary       |              Filename             |
+-----------------------------------------------------------------------+
|SU2 binary restart                 |restart.dat                        |
|Paraview                           |vol_solution.vtu                   |
|Paraview surface                   |surface.vtu                        |
+-----------------------------------------------------------------------+
+--------------------------------------------------------------------------------------------------------------------+
|  Inner_Iter|    rms[Rho]|   rms[RhoU]|   rms[RhoV]|   rms[RhoE]|          CD|          CL|         CMz|   LinSolRes|
+--------------------------------------------------------------------------------------------------------------------+
|        2825|   -7.897550|   -8.197629|   -8.416082|   -7.599473|    0.021690|    0.616476|    0.295766|   -0.679644|
|        2850|   -7.892128|   -8.179743|   -8.391683|   -7.588606|    0.021687|    0.616420|    0.295735|   -0.672329|
|        2875|   -7.912523|   -8.190665|   -8.410456|   -7.611683|    0.021685|    0.616363|    0.295705|   -0.637784|
|        2900|   -7.927296|   -8.197875|   -8.413060|   -7.624384|    0.021682|    0.616308|    0.295676|   -0.717144|
+-----------------------------------------------------------------------+
|        File Writing Summary       |              Filename             |
+-----------------------------------------------------------------------+
|SU2 binary restart                 |restart.dat                        |
|Paraview                           |vol_solution.vtu                   |
|Paraview surface                   |surface.vtu                        |
+-----------------------------------------------------------------------+
+--------------------------------------------------------------------------------------------------------------------+
|  Inner_Iter|    rms[Rho]|   rms[RhoU]|   rms[RhoV]|   rms[RhoE]|          CD|          CL|         CMz|   LinSolRes|
+--------------------------------------------------------------------------------------------------------------------+
|        2925|   -7.954035|   -8.239159|   -8.446983|   -7.658982|    0.021680|    0.616254|    0.295649|   -0.700898|
|        2950|   -7.963609|   -8.248646|   -8.460369|   -7.673800|    0.021678|    0.616203|    0.295623|   -0.662479|
|        2975|   -7.969384|   -8.219059|   -8.438811|   -7.669801|    0.021675|    0.616152|    0.295596|   -0.713784|
|        3000|   -7.995199|   -8.246502|   -8.469061|   -7.704024|    0.021674|    0.616102|    0.295569|   -0.640724|
+-----------------------------------------------------------------------+
|        File Writing Summary       |              Filename             |
+-----------------------------------------------------------------------+
|SU2 binary restart                 |restart.dat                        |
|Paraview                           |vol_solution.vtu                   |
|Paraview surface                   |surface.vtu                        |
+-----------------------------------------------------------------------+
+--------------------------------------------------------------------------------------------------------------------+
|  Inner_Iter|    rms[Rho]|   rms[RhoU]|   rms[RhoV]|   rms[RhoE]|          CD|          CL|         CMz|   LinSolRes|
+--------------------------------------------------------------------------------------------------------------------+
|        3025|   -8.001300|   -8.260507|   -8.456948|   -7.709239|    0.021672|    0.616051|    0.295543|   -0.525257|
|        3050|   -7.994939|   -8.259983|   -8.428090|   -7.693671|    0.021670|    0.616002|    0.295518|   -0.718265|
|        3075|   -8.021347|   -8.300822|   -8.458957|   -7.723422|    0.021668|    0.615953|    0.295493|   -0.629625|
|        3100|   -8.036289|   -8.303652|   -8.469862|   -7.734489|    0.021666|    0.615906|    0.295469|   -0.612477|
+-----------------------------------------------------------------------+
|        File Writing Summary       |              Filename             |
+-----------------------------------------------------------------------+
|SU2 binary restart                 |restart.dat                        |
|Paraview                           |vol_solution.vtu                   |
|Paraview surface                   |surface.vtu                        |
+-----------------------------------------------------------------------+
+--------------------------------------------------------------------------------------------------------------------+
|  Inner_Iter|    rms[Rho]|   rms[RhoU]|   rms[RhoV]|   rms[RhoE]|          CD|          CL|         CMz|   LinSolRes|
+--------------------------------------------------------------------------------------------------------------------+
|        3125|   -8.055657|   -8.312334|   -8.503208|   -7.755375|    0.021664|    0.615861|    0.295446|   -0.594801|
|        3150|   -8.064534|   -8.309512|   -8.513916|   -7.762266|    0.021662|    0.615817|    0.295423|   -0.604162|
|        3175|   -8.091745|   -8.332335|   -8.570485|   -7.794742|    0.021661|    0.615774|    0.295401|   -0.596135|
|        3200|   -8.099285|   -8.339262|   -8.582127|   -7.802794|    0.021659|    0.615731|    0.295379|   -0.610496|
+-----------------------------------------------------------------------+
|        File Writing Summary       |              Filename             |
+-----------------------------------------------------------------------+
|SU2 binary restart                 |restart.dat                        |
|Paraview                           |vol_solution.vtu                   |
|Paraview surface                   |surface.vtu                        |
+-----------------------------------------------------------------------+
+--------------------------------------------------------------------------------------------------------------------+
|  Inner_Iter|    rms[Rho]|   rms[RhoU]|   rms[RhoV]|   rms[RhoE]|          CD|          CL|         CMz|   LinSolRes|
+--------------------------------------------------------------------------------------------------------------------+
|        3225|   -8.106005|   -8.351445|   -8.591405|   -7.812766|    0.021658|    0.615690|    0.295359|   -0.621917|
|        3250|   -7.996723|   -8.335541|   -8.419563|   -7.701808|    0.021656|    0.615650|    0.295339|   -0.497915|
|        3275|   -8.058436|   -8.277127|   -8.488312|   -7.772436|    0.021655|    0.615611|    0.295319|   -0.600399|
|        3300|   -8.098149|   -8.314935|   -8.624652|   -7.806073|    0.021653|    0.615573|    0.295300|   -0.635362|
+-----------------------------------------------------------------------+
|        File Writing Summary       |              Filename             |
+-----------------------------------------------------------------------+
|SU2 binary restart                 |restart.dat                        |
|Paraview                           |vol_solution.vtu                   |
|Paraview surface                   |surface.vtu                        |
+-----------------------------------------------------------------------+
+--------------------------------------------------------------------------------------------------------------------+
|  Inner_Iter|    rms[Rho]|   rms[RhoU]|   rms[RhoV]|   rms[RhoE]|          CD|          CL|         CMz|   LinSolRes|
+--------------------------------------------------------------------------------------------------------------------+
|        3325|   -8.114157|   -8.346025|   -8.635064|   -7.820718|    0.021652|    0.615536|    0.295281|   -0.516558|
|        3350|   -8.124321|   -8.353159|   -8.650348|   -7.834616|    0.021651|    0.615500|    0.295263|   -0.617712|
|        3375|   -8.113397|   -8.348311|   -8.631888|   -7.819757|    0.021650|    0.615464|    0.295245|   -0.489707|
|        3400|   -8.093479|   -8.359685|   -8.649029|   -7.808663|    0.021648|    0.615429|    0.295227|   -0.648308|
+-----------------------------------------------------------------------+
|        File Writing Summary       |              Filename             |
+-----------------------------------------------------------------------+
|SU2 binary restart                 |restart.dat                        |
|Paraview                           |vol_solution.vtu                   |
|Paraview surface                   |surface.vtu                        |
+-----------------------------------------------------------------------+
+--------------------------------------------------------------------------------------------------------------------+
|  Inner_Iter|    rms[Rho]|   rms[RhoU]|   rms[RhoV]|   rms[RhoE]|          CD|          CL|         CMz|   LinSolRes|
+--------------------------------------------------------------------------------------------------------------------+
|        3425|   -8.078945|   -8.339911|   -8.618171|   -7.783876|    0.021647|    0.615394|    0.295209|   -0.700640|
|        3450|   -8.102811|   -8.372473|   -8.649277|   -7.817712|    0.021646|    0.615360|    0.295192|   -0.681842|
|        3475|   -8.106799|   -8.386424|   -8.643943|   -7.822309|    0.021645|    0.615326|    0.295175|   -0.704976|
|        3500|   -8.115579|   -8.397033|   -8.646696|   -7.832638|    0.021644|    0.615292|    0.295158|   -0.748734|
+-----------------------------------------------------------------------+
|        File Writing Summary       |              Filename             |
+-----------------------------------------------------------------------+
|SU2 binary restart                 |restart.dat                        |
|Paraview                           |vol_solution.vtu                   |
|Paraview surface                   |surface.vtu                        |
+-----------------------------------------------------------------------+
+--------------------------------------------------------------------------------------------------------------------+
|  Inner_Iter|    rms[Rho]|   rms[RhoU]|   rms[RhoV]|   rms[RhoE]|          CD|          CL|         CMz|   LinSolRes|
+--------------------------------------------------------------------------------------------------------------------+
|        3525|   -8.124918|   -8.404641|   -8.650211|   -7.843048|    0.021643|    0.615259|    0.295141|   -0.794268|
|        3550|   -8.129099|   -8.406642|   -8.644697|   -7.846000|    0.021642|    0.615226|    0.295125|   -0.800519|
|        3575|   -8.124813|   -8.403146|   -8.651290|   -7.838183|    0.021640|    0.615193|    0.295108|   -0.582701|
|        3600|   -8.136504|   -8.414094|   -8.665808|   -7.854718|    0.021639|    0.615160|    0.295091|   -0.776022|
+-----------------------------------------------------------------------+
|        File Writing Summary       |              Filename             |
+-----------------------------------------------------------------------+
|SU2 binary restart                 |restart.dat                        |
|Paraview                           |vol_solution.vtu                   |
|Paraview surface                   |surface.vtu                        |
+-----------------------------------------------------------------------+
+--------------------------------------------------------------------------------------------------------------------+
|  Inner_Iter|    rms[Rho]|   rms[RhoU]|   rms[RhoV]|   rms[RhoE]|          CD|          CL|         CMz|   LinSolRes|
+--------------------------------------------------------------------------------------------------------------------+
|        3625|   -8.134497|   -8.415673|   -8.662418|   -7.852940|    0.021638|    0.615127|    0.295074|   -0.800244|
|        3650|   -8.072164|   -8.384569|   -8.492642|   -7.789342|    0.021637|    0.615094|    0.295057|   -0.676903|
|        3675|   -8.114912|   -8.402804|   -8.609346|   -7.834106|    0.021636|    0.615060|    0.295040|   -0.797464|
|        3700|   -8.112526|   -8.398639|   -8.621171|   -7.832250|    0.021634|    0.615025|    0.295022|   -0.812346|
+-----------------------------------------------------------------------+
|        File Writing Summary       |              Filename             |
+-----------------------------------------------------------------------+
|SU2 binary restart                 |restart.dat                        |
|Paraview                           |vol_solution.vtu                   |
|Paraview surface                   |surface.vtu                        |
+-----------------------------------------------------------------------+
+--------------------------------------------------------------------------------------------------------------------+
|  Inner_Iter|    rms[Rho]|   rms[RhoU]|   rms[RhoV]|   rms[RhoE]|          CD|          CL|         CMz|   LinSolRes|
+--------------------------------------------------------------------------------------------------------------------+
|        3725|   -8.103144|   -8.404776|   -8.618270|   -7.822384|    0.021633|    0.614990|    0.295004|   -0.811529|
|        3750|   -8.103781|   -8.393286|   -8.600293|   -7.819155|    0.021632|    0.614955|    0.294985|   -0.784213|
|        3775|   -8.110794|   -8.402349|   -8.605655|   -7.826773|    0.021630|    0.614918|    0.294966|   -0.773355|
|        3800|   -8.096858|   -8.393549|   -8.580782|   -7.808620|    0.021629|    0.614881|    0.294946|   -0.719271|
+-----------------------------------------------------------------------+
|        File Writing Summary       |              Filename             |
+-----------------------------------------------------------------------+
|SU2 binary restart                 |restart.dat                        |
|Paraview                           |vol_solution.vtu                   |
|Paraview surface                   |surface.vtu                        |
+-----------------------------------------------------------------------+
+--------------------------------------------------------------------------------------------------------------------+
|  Inner_Iter|    rms[Rho]|   rms[RhoU]|   rms[RhoV]|   rms[RhoE]|          CD|          CL|         CMz|   LinSolRes|
+--------------------------------------------------------------------------------------------------------------------+
|        3825|   -8.095993|   -8.397438|   -8.649953|   -7.815347|    0.021627|    0.614844|    0.294927|   -0.801218|
|        3850|   -8.102592|   -8.399148|   -8.662595|   -7.822755|    0.021626|    0.614806|    0.294907|   -0.844530|
|        3875|   -7.808297|   -7.932328|   -8.430069|   -7.501688|    0.021624|    0.614771|    0.294888|   -0.859821|
|        3900|   -8.057844|   -8.094560|   -8.582536|   -7.780858|    0.021623|    0.614733|    0.294868|   -0.321176|
+-----------------------------------------------------------------------+
|        File Writing Summary       |              Filename             |
+-----------------------------------------------------------------------+
|SU2 binary restart                 |restart.dat                        |
|Paraview                           |vol_solution.vtu                   |
|Paraview surface                   |surface.vtu                        |
+-----------------------------------------------------------------------+
+--------------------------------------------------------------------------------------------------------------------+
|  Inner_Iter|    rms[Rho]|   rms[RhoU]|   rms[RhoV]|   rms[RhoE]|          CD|          CL|         CMz|   LinSolRes|
+--------------------------------------------------------------------------------------------------------------------+
|        3925|   -8.121362|   -8.348023|   -8.689993|   -7.837253|    0.021621|    0.614695|    0.294848|   -0.791449|
|        3950|   -8.129396|   -8.374013|   -8.690675|   -7.845324|    0.021619|    0.614656|    0.294828|   -0.790517|
|        3975|   -8.112795|   -8.345886|   -8.669179|   -7.824087|    0.021618|    0.614615|    0.294807|   -0.685272|
|        4000|   -8.114471|   -8.331640|   -8.664347|   -7.827175|    0.021616|    0.614570|    0.294783|   -0.681155|
+-----------------------------------------------------------------------+
|        File Writing Summary       |              Filename             |
+-----------------------------------------------------------------------+
|SU2 binary restart                 |restart.dat                        |
|Paraview                           |vol_solution.vtu                   |
|Paraview surface                   |surface.vtu                        |
+-----------------------------------------------------------------------+
+--------------------------------------------------------------------------------------------------------------------+
|  Inner_Iter|    rms[Rho]|   rms[RhoU]|   rms[RhoV]|   rms[RhoE]|          CD|          CL|         CMz|   LinSolRes|
+--------------------------------------------------------------------------------------------------------------------+
|        4025|   -8.109243|   -8.298478|   -8.665924|   -7.819804|    0.021615|    0.614532|    0.294763|   -0.777571|
|        4050|   -7.946730|   -7.584278|   -8.141860|   -7.637077|    0.021613|    0.614498|    0.294746|   -0.304311|
|        4075|   -8.085462|   -8.276037|   -8.630698|   -7.787882|    0.021612|    0.614454|    0.294723|   -0.752063|
|        4100|   -8.096330|   -8.318770|   -8.629125|   -7.800242|    0.021610|    0.614410|    0.294700|   -0.594123|
+-----------------------------------------------------------------------+
|        File Writing Summary       |              Filename             |
+-----------------------------------------------------------------------+
|SU2 binary restart                 |restart.dat                        |
|Paraview                           |vol_solution.vtu                   |
|Paraview surface                   |surface.vtu                        |
+-----------------------------------------------------------------------+
+--------------------------------------------------------------------------------------------------------------------+
|  Inner_Iter|    rms[Rho]|   rms[RhoU]|   rms[RhoV]|   rms[RhoE]|          CD|          CL|         CMz|   LinSolRes|
+--------------------------------------------------------------------------------------------------------------------+
|        4125|   -8.054232|   -8.240456|   -8.547352|   -7.762180|    0.021608|    0.614374|    0.294682|   -0.685515|
|        4150|   -8.122491|   -8.363696|   -8.635289|   -7.833439|    0.021607|    0.614332|    0.294660|   -0.686320|
|        4175|   -8.089793|   -8.349131|   -8.646601|   -7.800497|    0.021605|    0.614295|    0.294641|   -0.754161|
|        4200|   -8.102528|   -8.403533|   -8.666694|   -7.813678|    0.021604|    0.614261|    0.294624|   -0.760809|
+-----------------------------------------------------------------------+
|        File Writing Summary       |              Filename             |
+-----------------------------------------------------------------------+
|SU2 binary restart                 |restart.dat                        |
|Paraview                           |vol_solution.vtu                   |
|Paraview surface                   |surface.vtu                        |
+-----------------------------------------------------------------------+
+--------------------------------------------------------------------------------------------------------------------+
|  Inner_Iter|    rms[Rho]|   rms[RhoU]|   rms[RhoV]|   rms[RhoE]|          CD|          CL|         CMz|   LinSolRes|
+--------------------------------------------------------------------------------------------------------------------+
|        4225|   -8.075855|   -8.377994|   -8.653581|   -7.781317|    0.021603|    0.614224|    0.294605|   -0.711524|
|        4250|   -8.120179|   -8.401093|   -8.685473|   -7.828556|    0.021602|    0.614189|    0.294587|   -0.612763|
|        4275|   -8.164889|   -8.403470|   -8.699307|   -7.873843|    0.021600|    0.614154|    0.294568|   -0.619781|
|        4300|   -8.168340|   -8.299125|   -8.672723|   -7.876226|    0.021599|    0.614120|    0.294551|   -0.520568|
+-----------------------------------------------------------------------+
|        File Writing Summary       |              Filename             |
+-----------------------------------------------------------------------+
|SU2 binary restart                 |restart.dat                        |
|Paraview                           |vol_solution.vtu                   |
|Paraview surface                   |surface.vtu                        |
+-----------------------------------------------------------------------+
+--------------------------------------------------------------------------------------------------------------------+
|  Inner_Iter|    rms[Rho]|   rms[RhoU]|   rms[RhoV]|   rms[RhoE]|          CD|          CL|         CMz|   LinSolRes|
+--------------------------------------------------------------------------------------------------------------------+
|        4325|   -8.186587|   -8.404163|   -8.724087|   -7.896850|    0.021598|    0.614087|    0.294534|   -0.574865|
|        4350|   -8.121301|   -8.381147|   -8.668622|   -7.825004|    0.021596|    0.614053|    0.294516|   -0.645235|
|        4375|   -8.130460|   -8.426628|   -8.694036|   -7.837460|    0.021595|    0.614018|    0.294497|   -0.688955|
|        4400|   -8.123078|   -8.427111|   -8.694360|   -7.824657|    0.021593|    0.613983|    0.294479|   -0.669505|
+-----------------------------------------------------------------------+
|        File Writing Summary       |              Filename             |
+-----------------------------------------------------------------------+
|SU2 binary restart                 |restart.dat                        |
|Paraview                           |vol_solution.vtu                   |
|Paraview surface                   |surface.vtu                        |
+-----------------------------------------------------------------------+
+--------------------------------------------------------------------------------------------------------------------+
|  Inner_Iter|    rms[Rho]|   rms[RhoU]|   rms[RhoV]|   rms[RhoE]|          CD|          CL|         CMz|   LinSolRes|
+--------------------------------------------------------------------------------------------------------------------+
|        4425|   -8.114785|   -8.399546|   -8.681443|   -7.814968|    0.021592|    0.613948|    0.294461|   -0.602347|
|        4450|   -8.216392|   -8.438189|   -8.768143|   -7.929584|    0.021590|    0.613914|    0.294443|   -0.666916|
|        4475|   -8.233309|   -8.456012|   -8.771842|   -7.946567|    0.021589|    0.613880|    0.294426|   -0.701103|
|        4500|   -8.228415|   -8.457541|   -8.747868|   -7.939015|    0.021588|    0.613847|    0.294408|   -0.767316|
+-----------------------------------------------------------------------+
|        File Writing Summary       |              Filename             |
+-----------------------------------------------------------------------+
|SU2 binary restart                 |restart.dat                        |
|Paraview                           |vol_solution.vtu                   |
|Paraview surface                   |surface.vtu                        |
+-----------------------------------------------------------------------+
+--------------------------------------------------------------------------------------------------------------------+
|  Inner_Iter|    rms[Rho]|   rms[RhoU]|   rms[RhoV]|   rms[RhoE]|          CD|          CL|         CMz|   LinSolRes|
+--------------------------------------------------------------------------------------------------------------------+
|        4525|   -8.237632|   -8.478901|   -8.767012|   -7.950199|    0.021586|    0.613813|    0.294391|   -0.704274|
|        4550|   -8.256664|   -8.508074|   -8.798580|   -7.977242|    0.021585|    0.613782|    0.294374|   -0.884786|
|        4575|   -8.258461|   -8.506325|   -8.805507|   -7.979344|    0.021584|    0.613750|    0.294358|   -0.867836|
|        4600|   -8.259263|   -8.493905|   -8.808108|   -7.980153|    0.021583|    0.613719|    0.294342|   -0.685491|
+-----------------------------------------------------------------------+
|        File Writing Summary       |              Filename             |
+-----------------------------------------------------------------------+
|SU2 binary restart                 |restart.dat                        |
|Paraview                           |vol_solution.vtu                   |
|Paraview surface                   |surface.vtu                        |
+-----------------------------------------------------------------------+
+--------------------------------------------------------------------------------------------------------------------+
|  Inner_Iter|    rms[Rho]|   rms[RhoU]|   rms[RhoV]|   rms[RhoE]|          CD|          CL|         CMz|   LinSolRes|
+--------------------------------------------------------------------------------------------------------------------+
|        4625|   -8.254423|   -8.484785|   -8.803843|   -7.971570|    0.021581|    0.613688|    0.294326|   -0.760367|
|        4650|   -8.258577|   -8.518602|   -8.814075|   -7.976151|    0.021580|    0.613658|    0.294310|   -0.832393|
|        4675|   -8.261366|   -8.525199|   -8.820154|   -7.980315|    0.021579|    0.613628|    0.294294|   -0.872958|
|        4700|   -8.256940|   -8.506670|   -8.821637|   -7.972737|    0.021578|    0.613597|    0.294278|   -0.823704|
+-----------------------------------------------------------------------+
|        File Writing Summary       |              Filename             |
+-----------------------------------------------------------------------+
|SU2 binary restart                 |restart.dat                        |
|Paraview                           |vol_solution.vtu                   |
|Paraview surface                   |surface.vtu                        |
+-----------------------------------------------------------------------+
+--------------------------------------------------------------------------------------------------------------------+
|  Inner_Iter|    rms[Rho]|   rms[RhoU]|   rms[RhoV]|   rms[RhoE]|          CD|          CL|         CMz|   LinSolRes|
+--------------------------------------------------------------------------------------------------------------------+
|        4725|   -8.258013|   -8.502809|   -8.822912|   -7.972163|    0.021576|    0.613567|    0.294262|   -0.826689|
|        4750|   -8.248973|   -8.489612|   -8.795454|   -7.958034|    0.021575|    0.613527|    0.294242|   -0.694129|
|        4775|   -8.272631|   -8.495034|   -8.799696|   -7.986416|    0.021573|    0.613489|    0.294222|   -0.499186|
|        4800|   -8.281207|   -8.494175|   -8.833484|   -8.000169|    0.021572|    0.613456|    0.294204|   -0.925988|
+-----------------------------------------------------------------------+
|        File Writing Summary       |              Filename             |
+-----------------------------------------------------------------------+
|SU2 binary restart                 |restart.dat                        |
|Paraview                           |vol_solution.vtu                   |
|Paraview surface                   |surface.vtu                        |
+-----------------------------------------------------------------------+
+--------------------------------------------------------------------------------------------------------------------+
|  Inner_Iter|    rms[Rho]|   rms[RhoU]|   rms[RhoV]|   rms[RhoE]|          CD|          CL|         CMz|   LinSolRes|
+--------------------------------------------------------------------------------------------------------------------+
|        4825|   -8.283884|   -8.489088|   -8.835117|   -8.004282|    0.021571|    0.613427|    0.294189|   -0.934615|
|        4850|   -8.283683|   -8.486480|   -8.832547|   -8.004863|    0.021569|    0.613398|    0.294174|   -0.925986|
|        4875|   -8.282032|   -8.483936|   -8.823921|   -8.003934|    0.021568|    0.613367|    0.294158|   -0.912183|
|        4900|   -8.281638|   -8.484150|   -8.821568|   -8.003768|    0.021567|    0.613337|    0.294142|   -0.906779|
+-----------------------------------------------------------------------+
|        File Writing Summary       |              Filename             |
+-----------------------------------------------------------------------+
|SU2 binary restart                 |restart.dat                        |
|Paraview                           |vol_solution.vtu                   |
|Paraview surface                   |surface.vtu                        |
+-----------------------------------------------------------------------+
+--------------------------------------------------------------------------------------------------------------------+
|  Inner_Iter|    rms[Rho]|   rms[RhoU]|   rms[RhoV]|   rms[RhoE]|          CD|          CL|         CMz|   LinSolRes|
+--------------------------------------------------------------------------------------------------------------------+
|        4925|   -8.284070|   -8.488740|   -8.826032|   -8.005782|    0.021566|    0.613308|    0.294127|   -0.910104|
|        4950|   -8.287482|   -8.498416|   -8.830176|   -8.008858|    0.021564|    0.613279|    0.294112|   -0.912396|
|        4975|   -8.290813|   -8.509797|   -8.833544|   -8.011790|    0.021563|    0.613250|    0.294097|   -0.800002|
[...]
|  Inner_Iter|    rms[Rho]|   rms[RhoU]|   rms[RhoV]|   rms[RhoE]|          CD|          CL|         CMz|   LinSolRes|
+--------------------------------------------------------------------------------------------------------------------+
|        6425|   -8.594433|   -8.861837|   -9.126453|   -8.311333|    0.021515|    0.612060|    0.293482|   -0.909688|
|        6450|   -8.601889|   -8.870976|   -9.133424|   -8.318940|    0.021515|    0.612046|    0.293474|   -0.912600|
|        6475|   -8.604304|   -8.863061|   -9.108322|   -8.316355|    0.021514|    0.612031|    0.293466|   -0.698778|
|        6500|   -8.620024|   -8.883962|   -9.134299|   -8.335997|    0.021513|    0.612012|    0.293457|   -0.690385|
+-----------------------------------------------------------------------+
|        File Writing Summary       |              Filename             |
+-----------------------------------------------------------------------+
|SU2 binary restart                 |restart.dat                        |
|Paraview                           |vol_solution.vtu                   |
|Paraview surface                   |surface.vtu                        |
+-----------------------------------------------------------------------+
+--------------------------------------------------------------------------------------------------------------------+
|  Inner_Iter|    rms[Rho]|   rms[RhoU]|   rms[RhoV]|   rms[RhoE]|          CD|          CL|         CMz|   LinSolRes|
+--------------------------------------------------------------------------------------------------------------------+
|        6525|   -8.633230|   -8.899658|   -9.159089|   -8.351872|    0.021513|    0.611998|    0.293449|   -0.937483|
|        6550|   -8.640223|   -8.906236|   -9.166743|   -8.358941|    0.021512|    0.611985|    0.293443|   -0.942860|
|        6575|   -8.639086|   -8.898443|   -9.137678|   -8.353075|    0.021512|    0.611972|    0.293436|   -0.956598|
|        6600|   -8.645612|   -8.904505|   -9.144914|   -8.359055|    0.021511|    0.611958|    0.293429|   -0.955063|
+-----------------------------------------------------------------------+
|        File Writing Summary       |              Filename             |
+-----------------------------------------------------------------------+
|SU2 binary restart                 |restart.dat                        |
|Paraview                           |vol_solution.vtu                   |
|Paraview surface                   |surface.vtu                        |
+-----------------------------------------------------------------------+
+--------------------------------------------------------------------------------------------------------------------+
|  Inner_Iter|    rms[Rho]|   rms[RhoU]|   rms[RhoV]|   rms[RhoE]|          CD|          CL|         CMz|   LinSolRes|
+--------------------------------------------------------------------------------------------------------------------+
|        6625|   -8.658531|   -8.925309|   -9.186557|   -8.376328|    0.021511|    0.611946|    0.293422|   -0.936832|
|        6650|   -8.663327|   -8.930915|   -9.192822|   -8.380930|    0.021510|    0.611934|    0.293416|   -0.934273|
|        6675|   -8.668901|   -8.936911|   -9.199554|   -8.386346|    0.021510|    0.611922|    0.293410|   -0.812594|
|        6700|   -8.675001|   -8.942708|   -9.205547|   -8.392306|    0.021509|    0.611910|    0.293404|   -0.930671|
+-----------------------------------------------------------------------+
|        File Writing Summary       |              Filename             |
+-----------------------------------------------------------------------+
|SU2 binary restart                 |restart.dat                        |
|Paraview                           |vol_solution.vtu                   |
|Paraview surface                   |surface.vtu                        |
+-----------------------------------------------------------------------+
+--------------------------------------------------------------------------------------------------------------------+
|  Inner_Iter|    rms[Rho]|   rms[RhoU]|   rms[RhoV]|   rms[RhoE]|          CD|          CL|         CMz|   LinSolRes|
+--------------------------------------------------------------------------------------------------------------------+
|        6725|   -8.679539|   -8.948079|   -9.210294|   -8.396788|    0.021509|    0.611898|    0.293398|   -0.929528|
|        6750|   -8.684805|   -8.953471|   -9.215562|   -8.402067|    0.021508|    0.611887|    0.293392|   -0.928797|
|        6775|   -8.690255|   -8.959068|   -9.221219|   -8.407570|    0.021508|    0.611876|    0.293386|   -0.928185|
|        6800|   -8.696410|   -8.964174|   -9.221023|   -8.413638|    0.021507|    0.611862|    0.293379|   -0.810129|
+-----------------------------------------------------------------------+
|        File Writing Summary       |              Filename             |
+-----------------------------------------------------------------------+
|SU2 binary restart                 |restart.dat                        |
|Paraview                           |vol_solution.vtu                   |
|Paraview surface                   |surface.vtu                        |
+-----------------------------------------------------------------------+
+--------------------------------------------------------------------------------------------------------------------+
|  Inner_Iter|    rms[Rho]|   rms[RhoU]|   rms[RhoV]|   rms[RhoE]|          CD|          CL|         CMz|   LinSolRes|
+--------------------------------------------------------------------------------------------------------------------+
|        6825|   -8.704157|   -8.971024|   -9.227509|   -8.421445|    0.021506|    0.611847|    0.293371|   -0.808569|
|        6850|   -8.709003|   -8.977335|   -9.238549|   -8.426629|    0.021506|    0.611836|    0.293366|   -0.926661|
|        6875|   -8.713297|   -8.982509|   -9.242585|   -8.431105|    0.021506|    0.611826|    0.293360|   -0.926918|
|        6900|   -8.719578|   -8.988315|   -9.247522|   -8.437465|    0.021505|    0.611814|    0.293354|   -0.927791|
+-----------------------------------------------------------------------+
|        File Writing Summary       |              Filename             |
+-----------------------------------------------------------------------+
|SU2 binary restart                 |restart.dat                        |
|Paraview                           |vol_solution.vtu                   |
|Paraview surface                   |surface.vtu                        |
+-----------------------------------------------------------------------+
+--------------------------------------------------------------------------------------------------------------------+
|  Inner_Iter|    rms[Rho]|   rms[RhoU]|   rms[RhoV]|   rms[RhoE]|          CD|          CL|         CMz|   LinSolRes|
+--------------------------------------------------------------------------------------------------------------------+
|        6925|   -8.712585|   -8.972952|   -9.215910|   -8.425812|    0.021505|    0.611802|    0.293348|   -0.948485|
|        6950|   -8.726003|   -8.996198|   -9.252860|   -8.444318|    0.021504|    0.611792|    0.293343|   -0.929241|
|        6975|   -8.729209|   -8.999489|   -9.256718|   -8.447784|    0.021504|    0.611782|    0.293337|   -0.930520|
|        7000|   -8.732222|   -9.002221|   -9.258185|   -8.451007|    0.021503|    0.611771|    0.293332|   -0.808235|
+-----------------------------------------------------------------------+
|        File Writing Summary       |              Filename             |
+-----------------------------------------------------------------------+
|SU2 binary restart                 |restart.dat                        |
|Paraview                           |vol_solution.vtu                   |
|Paraview surface                   |surface.vtu                        |
+-----------------------------------------------------------------------+
+--------------------------------------------------------------------------------------------------------------------+
|  Inner_Iter|    rms[Rho]|   rms[RhoU]|   rms[RhoV]|   rms[RhoE]|          CD|          CL|         CMz|   LinSolRes|
+--------------------------------------------------------------------------------------------------------------------+
|        7025|   -8.735975|   -9.005178|   -9.262277|   -8.455119|    0.021503|    0.611761|    0.293326|   -0.808189|
|        7050|   -8.737692|   -9.006219|   -9.263210|   -8.457188|    0.021502|    0.611751|    0.293321|   -0.933767|
|        7075|   -8.739707|   -9.006997|   -9.263620|   -8.459658|    0.021502|    0.611741|    0.293316|   -0.933125|
|        7100|   -8.737734|   -9.000169|   -9.249596|   -8.457226|    0.021502|    0.611731|    0.293311|   -0.937944|
+-----------------------------------------------------------------------+
|        File Writing Summary       |              Filename             |
+-----------------------------------------------------------------------+
|SU2 binary restart                 |restart.dat                        |
|Paraview                           |vol_solution.vtu                   |
|Paraview surface                   |surface.vtu                        |
+-----------------------------------------------------------------------+
+--------------------------------------------------------------------------------------------------------------------+
|  Inner_Iter|    rms[Rho]|   rms[RhoU]|   rms[RhoV]|   rms[RhoE]|          CD|          CL|         CMz|   LinSolRes|
+--------------------------------------------------------------------------------------------------------------------+
|        7125|   -8.724146|   -8.967530|   -9.196173|   -8.439531|    0.021501|    0.611719|    0.293304|   -0.965505|
|        7150|   -8.750239|   -9.010385|   -9.268926|   -8.471423|    0.021501|    0.611708|    0.293299|   -0.924816|
|        7175|   -8.754886|   -9.013347|   -9.274070|   -8.476035|    0.021500|    0.611699|    0.293294|   -0.924548|
|        7200|   -8.761033|   -9.019633|   -9.280283|   -8.482116|    0.021500|    0.611689|    0.293289|   -0.926196|
+-----------------------------------------------------------------------+
|        File Writing Summary       |              Filename             |
+-----------------------------------------------------------------------+
|SU2 binary restart                 |restart.dat                        |
|Paraview                           |vol_solution.vtu                   |
|Paraview surface                   |surface.vtu                        |
+-----------------------------------------------------------------------+
+--------------------------------------------------------------------------------------------------------------------+
|  Inner_Iter|    rms[Rho]|   rms[RhoU]|   rms[RhoV]|   rms[RhoE]|          CD|          CL|         CMz|   LinSolRes|
+--------------------------------------------------------------------------------------------------------------------+
|        7225|   -8.771178|   -9.026911|   -9.291052|   -8.492009|    0.021499|    0.611679|    0.293284|   -0.805210|
|        7250|   -8.779485|   -9.035898|   -9.299524|   -8.499960|    0.021499|    0.611669|    0.293279|   -0.931242|
|        7275|   -8.786835|   -9.042986|   -9.306989|   -8.507053|    0.021499|    0.611660|    0.293274|   -0.933437|
|        7300|   -8.795465|   -9.051502|   -9.317790|   -8.515499|    0.021498|    0.611651|    0.293269|   -0.935057|
+-----------------------------------------------------------------------+
|        File Writing Summary       |              Filename             |
+-----------------------------------------------------------------------+
|SU2 binary restart                 |restart.dat                        |
|Paraview                           |vol_solution.vtu                   |
|Paraview surface                   |surface.vtu                        |
+-----------------------------------------------------------------------+
+--------------------------------------------------------------------------------------------------------------------+
|  Inner_Iter|    rms[Rho]|   rms[RhoU]|   rms[RhoV]|   rms[RhoE]|          CD|          CL|         CMz|   LinSolRes|
+--------------------------------------------------------------------------------------------------------------------+
|        7325|   -8.794280|   -9.040783|   -9.290450|   -8.511062|    0.021498|    0.611641|    0.293264|   -0.592147|
|        7350|   -8.817265|   -9.070612|   -9.339442|   -8.536895|    0.021497|    0.611632|    0.293259|   -0.936721|
|        7375|   -8.825907|   -9.078152|   -9.348806|   -8.545314|    0.021497|    0.611624|    0.293255|   -0.937326|
|        7400|   -8.835082|   -9.087110|   -9.358073|   -8.554441|    0.021497|    0.611616|    0.293251|   -0.937877|
+-----------------------------------------------------------------------+
|        File Writing Summary       |              Filename             |
+-----------------------------------------------------------------------+
|SU2 binary restart                 |restart.dat                        |
|Paraview                           |vol_solution.vtu                   |
|Paraview surface                   |surface.vtu                        |
+-----------------------------------------------------------------------+
+--------------------------------------------------------------------------------------------------------------------+
|  Inner_Iter|    rms[Rho]|   rms[RhoU]|   rms[RhoV]|   rms[RhoE]|          CD|          CL|         CMz|   LinSolRes|
+--------------------------------------------------------------------------------------------------------------------+
|        7425|   -8.843000|   -9.089676|   -9.357587|   -8.561058|    0.021496|    0.611607|    0.293246|   -0.944249|
|        7450|   -8.860222|   -9.107294|   -9.382749|   -8.579284|    0.021496|    0.611598|    0.293241|   -0.936971|
|        7475|   -8.868975|   -9.115105|   -9.391756|   -8.587904|    0.021496|    0.611590|    0.293238|   -0.936654|
|        7500|   -8.878775|   -9.124153|   -9.403434|   -8.597635|    0.021495|    0.611583|    0.293234|   -0.936191|
+-----------------------------------------------------------------------+
|        File Writing Summary       |              Filename             |
+-----------------------------------------------------------------------+
|SU2 binary restart                 |restart.dat                        |
|Paraview                           |vol_solution.vtu                   |
|Paraview surface                   |surface.vtu                        |
+-----------------------------------------------------------------------+
+--------------------------------------------------------------------------------------------------------------------+
|  Inner_Iter|    rms[Rho]|   rms[RhoU]|   rms[RhoV]|   rms[RhoE]|          CD|          CL|         CMz|   LinSolRes|
+--------------------------------------------------------------------------------------------------------------------+
|        7525|   -8.887409|   -9.127136|   -9.402038|   -8.604683|    0.021495|    0.611575|    0.293230|   -0.702666|
|        7550|   -8.886715|   -9.111417|   -9.372042|   -8.597869|    0.021495|    0.611566|    0.293225|   -0.972600|
|        7575|   -8.914352|   -9.154047|   -9.438104|   -8.632784|    0.021494|    0.611559|    0.293222|   -0.932913|
|        7600|   -8.923393|   -9.162726|   -9.448373|   -8.641781|    0.021494|    0.611552|    0.293218|   -0.932033|
+-----------------------------------------------------------------------+
|        File Writing Summary       |              Filename             |
+-----------------------------------------------------------------------+
|SU2 binary restart                 |restart.dat                        |
|Paraview                           |vol_solution.vtu                   |
|Paraview surface                   |surface.vtu                        |
+-----------------------------------------------------------------------+
+--------------------------------------------------------------------------------------------------------------------+
|  Inner_Iter|    rms[Rho]|   rms[RhoU]|   rms[RhoV]|   rms[RhoE]|          CD|          CL|         CMz|   LinSolRes|
+--------------------------------------------------------------------------------------------------------------------+
|        7625|   -8.931638|   -9.170170|   -9.454927|   -8.649901|    0.021494|    0.611545|    0.293215|   -0.816510|
|        7650|   -8.927566|   -9.148891|   -9.414638|   -8.637655|    0.021493|    0.611538|    0.293211|   -0.966104|
|        7675|   -8.955847|   -9.192745|   -9.480277|   -8.673838|    0.021493|    0.611531|    0.293207|   -0.926460|
|        7700|   -8.964160|   -9.200451|   -9.490024|   -8.682020|    0.021493|    0.611525|    0.293204|   -0.924661|
+-----------------------------------------------------------------------+
|        File Writing Summary       |              Filename             |
+-----------------------------------------------------------------------+
|SU2 binary restart                 |restart.dat                        |
|Paraview                           |vol_solution.vtu                   |
|Paraview surface                   |surface.vtu                        |
+-----------------------------------------------------------------------+
+--------------------------------------------------------------------------------------------------------------------+
|  Inner_Iter|    rms[Rho]|   rms[RhoU]|   rms[RhoV]|   rms[RhoE]|          CD|          CL|         CMz|   LinSolRes|
+--------------------------------------------------------------------------------------------------------------------+
|        7725|   -8.969049|   -9.204017|   -9.486974|   -8.685297|    0.021493|    0.611519|    0.293201|   -0.929083|
|        7750|   -8.974195|   -9.202643|   -9.478414|   -8.687419|    0.021492|    0.611512|    0.293197|   -0.703490|
|        7775|   -8.993362|   -9.229790|   -9.518134|   -8.710360|    0.021492|    0.611505|    0.293194|   -0.902803|
|        7792|   -8.997761|   -9.235116|   -9.522957|   -8.715028|    0.021492|    0.611501|    0.293192|   -0.913726|

----------------------------- Solver Exit -------------------------------
All convergence criteria satisfied.
+-----------------------------------------------------------------------+
|      Convergence Field     |     Value    |   Criterion  |  Converged |
+-----------------------------------------------------------------------+
|                  Cauchy[CL]|   4.99977e-07|       < 5e-07|         Yes|
+-----------------------------------------------------------------------+
-------------------------------------------------------------------------
+-----------------------------------------------------------------------+
|        File Writing Summary       |              Filename             |
+-----------------------------------------------------------------------+
|SU2 binary restart                 |restart.dat                        |
|Paraview                           |vol_solution.vtu                   |
|Paraview surface                   |surface.vtu                        |
+-----------------------------------------------------------------------+

------------------------- Solver Postprocessing -------------------------
Deleted CNumerics container.
Deleted CIntegration container.
Deleted CSolver container.
Deleted CIteration container.
Deleted CInterface container.
Deleted CGeometry container.
Deleted CFreeFormDefBox class.
Deleted CSurfaceMovement class.
Deleted CVolumetricMovement class.
Deleted CConfig container.
Deleted nInst container.
Deleted COutput class.
-------------------------------------------------------------------------

------------------------- Exit Success (SU2_CFD) ------------------------

