WARNING: The current SST-1994m model is inconsistent with literature. We recommend using the SST-2003m model.
In SU2 v8 the 2003m model will become default, and the inconsistency will be fixed.

-------------------------------------------------------------------------
|    ___ _   _ ___                                                      |
|   / __| | | |_  )   Release 7.4.0 "Blackbird"                         |
|   \__ \ |_| |/ /                                                      |
|   |___/\___//___|   Suite (Computational Fluid Dynamics Code)         |
|                                                                       |
-------------------------------------------------------------------------
| SU2 Project Website: https://su2code.github.io                        |
|                                                                       |
| The SU2 Project is maintained by the SU2 Foundation                   |
| (http://su2foundation.org)                                            |
-------------------------------------------------------------------------
| Copyright 2012-2022, SU2 Contributors                                 |
|                                                                       |
| SU2 is free software; you can redistribute it and/or                  |
| modify it under the terms of the GNU Lesser General Public            |
| License as published by the Free Software Foundation; either          |
| version 2.1 of the License, or (at your option) any later version.    |
|                                                                       |
| SU2 is distributed in the hope that it will be useful,                |
| but WITHOUT ANY WARRANTY; without even the implied warranty of        |
| MERCHANTABILITY or FITNESS FOR A PARTICULAR PURPOSE. See the GNU      |
| Lesser General Public License for more details.                       |
|                                                                       |
| You should have received a copy of the GNU Lesser General Public      |
| License along with SU2. If not, see <http://www.gnu.org/licenses/>.   |
-------------------------------------------------------------------------
WARNING: The current SST-1994m model is inconsistent with literature. We recommend using the SST-2003m model.
In SU2 v8 the 2003m model will become default, and the inconsistency will be fixed.

Parsing config file for zone 0
WARNING: The current SST-1994m model is inconsistent with literature. We recommend using the SST-2003m model.
In SU2 v8 the 2003m model will become default, and the inconsistency will be fixed.

----------------- Physical Case Definition ( Zone 0 ) -------------------
Compressible RANS equations.
Turbulence model: Menter's k-omega SST-1994m with no production modification.
Hybrid RANS/LES: No Hybrid RANS/LES
Mach number: 0.21.
Angle of attack (AoA): -3 deg, and angle of sideslip (AoS): 0 deg.
Reynolds number: 1.06749e+07. Reference length 2.62.
Reading and writing binary SU2 native restart files.
Read flow solution from: solution_flow.
Non-Dimensional simulation (V=Mach, Rho=1.0, T=1.0 at the farfield).
The reference area is 2.62 m^2.
The semi-span will be computed using the max y(3D) value.
The reference length is 2.62 m.
Reference origin for moment evaluation is (0, 0, 0).
Surface(s) where the force coefficients are evaluated: wall.

Surface(s) plotted in the output file: wall.
Input mesh file name: su2meshEx.su2

--------------- Space Numerical Integration ( Zone 0 ) ------------------
Roe (with entropy fix = 1e-05) solver for the flow inviscid terms.
Standard Roe without low-dissipation function.
Second order integration in space, with slope limiter.
Van Albada slope-limiting method implemented by edges.
Scalar upwind solver for the turbulence model.
First order integration in space.
Average of gradients with correction (viscous flow terms).
Average of gradients with correction (viscous turbulence terms).
Gradient for upwind reconstruction: Green-Gauss.
Gradient for viscous and source terms: Green-Gauss.

--------------- Time Numerical Integration  ( Zone 0 ) ------------------
Local time stepping (steady state simulation).
Euler implicit method for the flow equations.
FGMRES is used for solving the linear system.
Using a ILU(0) preconditioning.
Convergence criteria of the linear solver: 0.2.
Max number of linear iterations: 4.
CFL adaptation. Factor down: 0.1, factor up: 1.2,
                lower limit: 25, upper limit: 1000,
                acceptable linear residual: 0.001.
Courant-Friedrichs-Lewy number:       25
Euler implicit time integration for the turbulence model.

------------------ Convergence Criteria  ( Zone 0 ) ---------------------
Maximum number of solver subiterations: 25000.
Begin convergence monitoring at iteration 10.
Residual minimum value: 1e-11.5.
Cauchy series min. value: 5e-07.
Number of Cauchy elements: 500.
Begin windowed time average at iteration 0.

-------------------- Output Information ( Zone 0 ) ----------------------
File writing frequency: 
+------------------------------------+
|                     File| Frequency|
+------------------------------------+
|                  RESTART|       100|
|                 PARAVIEW|       100|
|         SURFACE_PARAVIEW|       100|
+------------------------------------+
Writing the convergence history file every 1 inner iterations.
Writing the screen convergence history every 25 inner iterations.
The tabular file format is CSV (.csv).
Convergence history file name: history.
Forces breakdown file name: forces_breakdown.dat.
Surface file name: surface.
Volume file name: vol_solution.
Restart file name: restart.dat.

------------- Config File Boundary Information ( Zone 0 ) ---------------
+-----------------------------------------------------------------------+
|                        Marker Type|                        Marker Name|
+-----------------------------------------------------------------------+
|                          Far-field|                          far-field|
+-----------------------------------------------------------------------+
|                     Heat flux wall|                               wall|
+-----------------------------------------------------------------------+

-------------------- Output Preprocessing ( Zone 0 ) --------------------

WARNING: SURFACE_PRESSURE_DROP can only be computed for at least 2 surfaces (outlet, inlet, ...)

  Info: Ignoring the following screen output fields:
  RMS_NU_TILDE
Screen output fields: INNER_ITER, RMS_DENSITY, RMS_MOMENTUM-X, RMS_MOMENTUM-Y, RMS_ENERGY, DRAG, LIFT, MOMENT_Z, LINSOL_RESIDUAL
History output group(s): ITER, RMS_RES, AERO_COEFF
Convergence field(s): LIFT
Warning: No (valid) fields chosen for time convergence monitoring. Time convergence monitoring inactive.
Volume output fields: COORDINATES, SOLUTION, PRIMITIVE

------------------- Geometry Preprocessing ( Zone 0 ) -------------------
Two dimensional problem.
66015 grid points before partitioning.
65610 volume elements before partitioning.
2 surface markers.
405 boundary elements in index 0 (Marker = far-field).
405 boundary elements in index 1 (Marker = wall).
Executing the partitioning functions.
Building the graph adjacency structure.
Calling ParMETIS... graph partitioning complete (888 edge cuts).
Distributing ParMETIS coloring.
Rebalancing vertices.
Rebalancing volume element connectivity.
Rebalancing markers and surface elements.
67791 vertices including ghost points. 
66494 interior elements including halo cells. 
66494 quadrilaterals.
Establishing MPI communication patterns.
Setting point connectivity.
Renumbering points (Reverse Cuthill McKee Ordering).
Recomputing point connectivity.
Setting element connectivity.
Checking the numerical grid orientation.
All volume elements are correctly orientend.
All surface elements are correctly orientend.
Identifying edges and vertices.
Setting the control volume structure.
Area of the computational grid: 177681.
Searching for the closest normal neighbors to the surfaces.
Storing a mapping from global to local point index.
Compute the surface curvature.
Max K: 1084.38. Mean K: 3.59037. Standard deviation K: 49.7608.
Checking for periodicity.
Computing mesh quality statistics for the dual control volumes.
+--------------------------------------------------------------+
|           Mesh Quality Metric|        Minimum|        Maximum|
+--------------------------------------------------------------+
|    Orthogonality Angle (deg.)|         82.757|             90|
|     CV Face Area Aspect Ratio|        1.00372|        11629.9|
|           CV Sub-Volume Ratio|              1|        2.23945|
+--------------------------------------------------------------+
Finding max control volume width.
Communicating number of neighbors.
Wetted area = 5.32649 m.
Area projection in the x-plane = 0.29702 m, y-plane = 2.61984 m.
Max. coordinate in the x-direction = 2.62 m, y-direction = 0.165086 m.
Min. coordinate in the x-direction = 0 m, y-direction = -0.119236 m.
Computing wall distances.

-------------------- Solver Preprocessing ( Zone 0 ) --------------------
Viscous flow: Computing pressure using the ideal gas law
based on the free-stream temperature and a density computed
from the Reynolds number.
Force coefficients computed using free-stream values.

-- Models:
+------------------------------------------------------------------------------+
|          Viscosity Model|        Conductivity Model|              Fluid Model|
+------------------------------------------------------------------------------+
|               SUTHERLAND|          CONSTANT_PRANDTL|             STANDARD_AIR|
+------------------------------------------------------------------------------+
-- Fluid properties:
+------------------------------------------------------------------------------+
|                  Name|    Dim. value|    Ref. value|      Unit|Non-dim. value|
+------------------------------------------------------------------------------+
|        Ref. Viscosity|     1.716e-05|       334.862|   N.s/m^2|   5.12451e-08|
|      Sutherland Temp.|        273.15|       275.159|         K|      0.992697|
|     Sutherland Const.|         110.4|       275.159|         K|      0.401222|
+------------------------------------------------------------------------------+
|        Prandtl (Lam.)|             -|             -|         -|          0.72|
|       Prandtl (Turb.)|             -|             -|         -|           0.9|
+------------------------------------------------------------------------------+
|          Gas Constant|       287.058|       401.881|  N.m/kg.K|      0.714286|
|      Spec. Heat Ratio|             -|             -|         -|           1.4|
+------------------------------------------------------------------------------+
-- Initial and free-stream conditions:
+------------------------------------------------------------------------------+
|                  Name|    Dim. value|    Ref. value|      Unit|Non-dim. value|
+------------------------------------------------------------------------------+
|       Static Pressure|       79538.7|        111354|        Pa|      0.714286|
|               Density|       1.00699|       1.00699|    kg/m^3|             1|
|           Temperature|       275.159|       275.159|         K|             1|
|          Total Energy|        199923|        110581|   m^2/s^2|       1.80793|
|            Velocity-X|       69.7372|       332.538|       m/s|      0.209712|
|            Velocity-Y|      -3.65477|       332.538|       m/s|    -0.0109906|
|    Velocity Magnitude|       69.8329|       332.538|       m/s|          0.21|
+------------------------------------------------------------------------------+
|             Viscosity|   1.72593e-05|       334.862|   N.s/m^2|   5.15415e-08|
|          Conductivity|             -|        134575|   W/m^2.K|             -|
|     Turb. Kin. Energy|       18.2874|        110581|   m^2/s^2|   0.000165375|
|     Spec. Dissipation|        106697|       332.538|       1/s|       320.858|
+------------------------------------------------------------------------------+
|           Mach Number|             -|             -|         -|          0.21|
|       Reynolds Number|             -|             -|         -|   1.06749e+07|
+------------------------------------------------------------------------------+
Initialize Jacobian structure (Navier-Stokes). MG level: 0.
Initialize Jacobian structure (SST model).

------------------- Numerics Preprocessing ( Zone 0 ) -------------------

----------------- Integration Preprocessing ( Zone 0 ) ------------------

------------------- Iteration Preprocessing ( Zone 0 ) ------------------
Euler/Navier-Stokes/RANS fluid iteration.

------------------------------ Begin Solver -----------------------------

Simulation Run using the Single-zone Driver
WARNING: SU2 was not compiled for an AVX-capable architecture.
+--------------------------------------------------------------------------------------------------------------------+
|  Inner_Iter|    rms[Rho]|   rms[RhoU]|   rms[RhoV]|   rms[RhoE]|          CD|          CL|         CMz|   LinSolRes|
+--------------------------------------------------------------------------------------------------------------------+
|           0|   -3.420381|   -3.726996|   -3.447429|   -3.016579|    0.005298|   -0.161562|    0.036695|   -0.799139|
|          25|   -5.245409|   -4.877044|   -4.767273|   -4.849422|    0.001278|   -0.090275|    0.071880|   -0.665853|
|          50|   -5.854766|   -4.958677|   -5.086027|   -5.340144|    0.003747|   -0.104702|    0.055377|   -0.824485|
|          75|   -6.031949|   -5.092777|   -5.505586|   -5.540168|    0.003826|   -0.000060|    0.084569|   -0.688038|
|         100|   -6.291009|   -5.248693|   -5.815722|   -5.720971|    0.008482|   -0.026660|    0.067887|   -0.696008|
+-----------------------------------------------------------------------+
|        File Writing Summary       |              Filename             |
+-----------------------------------------------------------------------+
|SU2 binary restart                 |restart.dat                        |
|Paraview                           |vol_solution.vtu                   |
|Paraview surface                   |surface.vtu                        |
+-----------------------------------------------------------------------+
+--------------------------------------------------------------------------------------------------------------------+
|  Inner_Iter|    rms[Rho]|   rms[RhoU]|   rms[RhoV]|   rms[RhoE]|          CD|          CL|         CMz|   LinSolRes|
+--------------------------------------------------------------------------------------------------------------------+
|         125|   -6.423884|   -5.453463|   -5.991995|   -5.917376|    0.008874|   -0.069487|    0.058328|   -0.686918|
|         150|   -6.712186|   -5.747192|   -6.362414|   -6.180410|    0.007596|   -0.061753|    0.062724|   -0.635051|
|         175|   -7.035807|   -6.035588|   -6.525445|   -6.505814|    0.007424|   -0.048537|    0.066899|   -0.725871|
|         200|   -7.377286|   -6.351798|   -6.907808|   -6.859896|    0.007717|   -0.044386|    0.067676|   -0.667319|
+-----------------------------------------------------------------------+
|        File Writing Summary       |              Filename             |
+-----------------------------------------------------------------------+
|SU2 binary restart                 |restart.dat                        |
|Paraview                           |vol_solution.vtu                   |
|Paraview surface                   |surface.vtu                        |
+-----------------------------------------------------------------------+
+--------------------------------------------------------------------------------------------------------------------+
|  Inner_Iter|    rms[Rho]|   rms[RhoU]|   rms[RhoV]|   rms[RhoE]|          CD|          CL|         CMz|   LinSolRes|
+--------------------------------------------------------------------------------------------------------------------+
|         225|   -7.554367|   -6.603056|   -7.086510|   -7.022812|    0.007869|   -0.045259|    0.067378|   -1.029922|
|         250|   -7.727599|   -6.768419|   -7.243899|   -7.221621|    0.007871|   -0.045568|    0.067442|   -0.787108|
|         275|   -7.782730|   -6.960868|   -7.535121|   -7.326185|    0.007849|   -0.045037|    0.067681|   -0.593965|
|         300|   -8.097257|   -7.106535|   -7.679362|   -7.573913|    0.007819|   -0.044302|    0.067938|   -0.655562|
+-----------------------------------------------------------------------+
|        File Writing Summary       |              Filename             |
+-----------------------------------------------------------------------+
|SU2 binary restart                 |restart.dat                        |
|Paraview                           |vol_solution.vtu                   |
|Paraview surface                   |surface.vtu                        |
+-----------------------------------------------------------------------+
+--------------------------------------------------------------------------------------------------------------------+
|  Inner_Iter|    rms[Rho]|   rms[RhoU]|   rms[RhoV]|   rms[RhoE]|          CD|          CL|         CMz|   LinSolRes|
+--------------------------------------------------------------------------------------------------------------------+
|         325|   -8.176799|   -7.242925|   -7.732997|   -7.671199|    0.007821|   -0.043771|    0.068105|   -0.586741|
|         350|   -8.270559|   -7.352480|   -7.814450|   -7.773581|    0.007817|   -0.043300|    0.068263|   -0.680607|
|         375|   -8.426878|   -7.453060|   -7.943536|   -7.919288|    0.007827|   -0.043067|    0.068305|   -0.622764|
|         400|   -8.610293|   -7.559613|   -8.097202|   -8.071390|    0.007836|   -0.042892|    0.068350|   -0.625316|
+-----------------------------------------------------------------------+
|        File Writing Summary       |              Filename             |
+-----------------------------------------------------------------------+
|SU2 binary restart                 |restart.dat                        |
|Paraview                           |vol_solution.vtu                   |
|Paraview surface                   |surface.vtu                        |
+-----------------------------------------------------------------------+
+--------------------------------------------------------------------------------------------------------------------+
|  Inner_Iter|    rms[Rho]|   rms[RhoU]|   rms[RhoV]|   rms[RhoE]|          CD|          CL|         CMz|   LinSolRes|
+--------------------------------------------------------------------------------------------------------------------+
|         425|   -8.729828|   -7.665826|   -8.214996|   -8.170186|    0.007842|   -0.042796|    0.068362|   -0.633668|
|         450|   -8.739805|   -7.766511|   -8.255400|   -8.212096|    0.007845|   -0.042754|    0.068369|   -0.633790|
|         475|   -8.731687|   -7.850558|   -8.275381|   -8.244312|    0.007846|   -0.042674|    0.068398|   -0.617227|
|         500|   -8.796501|   -7.903864|   -8.338237|   -8.325678|    0.007846|   -0.042627|    0.068408|   -0.582025|
+-----------------------------------------------------------------------+
|        File Writing Summary       |              Filename             |
+-----------------------------------------------------------------------+
|SU2 binary restart                 |restart.dat                        |
|Paraview                           |vol_solution.vtu                   |
|Paraview surface                   |surface.vtu                        |
+-----------------------------------------------------------------------+
+--------------------------------------------------------------------------------------------------------------------+
|  Inner_Iter|    rms[Rho]|   rms[RhoU]|   rms[RhoV]|   rms[RhoE]|          CD|          CL|         CMz|   LinSolRes|
+--------------------------------------------------------------------------------------------------------------------+
|         525|   -8.889196|   -7.939212|   -8.455937|   -8.437798|    0.007843|   -0.042571|    0.068424|   -0.578576|
|         550|   -9.001242|   -8.005414|   -8.617436|   -8.565728|    0.007839|   -0.042485|    0.068450|   -0.571470|
|         575|   -9.107926|   -8.102906|   -8.762059|   -8.676162|    0.007838|   -0.042443|    0.068450|   -0.594422|
|         600|   -9.213474|   -8.210789|   -8.858588|   -8.770903|    0.007836|   -0.042395|    0.068455|   -0.616652|
+-----------------------------------------------------------------------+
|        File Writing Summary       |              Filename             |
+-----------------------------------------------------------------------+
|SU2 binary restart                 |restart.dat                        |
|Paraview                           |vol_solution.vtu                   |
|Paraview surface                   |surface.vtu                        |
+-----------------------------------------------------------------------+
+--------------------------------------------------------------------------------------------------------------------+
|  Inner_Iter|    rms[Rho]|   rms[RhoU]|   rms[RhoV]|   rms[RhoE]|          CD|          CL|         CMz|   LinSolRes|
+--------------------------------------------------------------------------------------------------------------------+
|         625|   -9.289496|   -8.315421|   -8.915772|   -8.836866|    0.007834|   -0.042358|    0.068451|   -0.639434|
|         650|   -9.346994|   -8.400841|   -8.952130|   -8.890106|    0.007834|   -0.042361|    0.068430|   -0.673006|
|         675|   -9.424518|   -8.460033|   -9.004998|   -8.961175|    0.007835|   -0.042367|    0.068413|   -0.578348|
|         700|   -9.464732|   -8.497581|   -9.084434|   -9.016853|    0.007835|   -0.042397|    0.068385|   -0.617426|
+-----------------------------------------------------------------------+
|        File Writing Summary       |              Filename             |
+-----------------------------------------------------------------------+
|SU2 binary restart                 |restart.dat                        |
|Paraview                           |vol_solution.vtu                   |
|Paraview surface                   |surface.vtu                        |
+-----------------------------------------------------------------------+
+--------------------------------------------------------------------------------------------------------------------+
|  Inner_Iter|    rms[Rho]|   rms[RhoU]|   rms[RhoV]|   rms[RhoE]|          CD|          CL|         CMz|   LinSolRes|
+--------------------------------------------------------------------------------------------------------------------+
|         725|   -9.510635|   -8.511761|   -9.171982|   -9.070939|    0.007836|   -0.042439|    0.068357|   -0.612073|
|         750|   -9.492837|   -8.514294|   -9.233797|   -9.068610|    0.007837|   -0.042478|    0.068335|   -0.768375|
|         775|   -9.549049|   -8.533020|   -9.294034|   -9.132189|    0.007838|   -0.042529|    0.068308|   -0.564329|
|         800|   -9.486140|   -8.576775|   -9.308616|   -9.114104|    0.007838|   -0.042569|    0.068290|   -0.656782|
+-----------------------------------------------------------------------+
|        File Writing Summary       |              Filename             |
+-----------------------------------------------------------------------+
|SU2 binary restart                 |restart.dat                        |
|Paraview                           |vol_solution.vtu                   |
|Paraview surface                   |surface.vtu                        |
+-----------------------------------------------------------------------+
+--------------------------------------------------------------------------------------------------------------------+
|  Inner_Iter|    rms[Rho]|   rms[RhoU]|   rms[RhoV]|   rms[RhoE]|          CD|          CL|         CMz|   LinSolRes|
+--------------------------------------------------------------------------------------------------------------------+
|         825|   -9.566354|   -8.637414|   -9.378392|   -9.230228|    0.007840|   -0.042613|    0.068270|   -0.705470|
|         850|   -9.641520|   -8.701659|   -9.413540|   -9.321737|    0.007841|   -0.042659|    0.068250|   -0.542623|
|         875|   -9.607157|   -8.760242|   -9.418522|   -9.297411|    0.007842|   -0.042697|    0.068234|   -0.656183|
|         900|   -9.678233|   -8.800408|   -9.443245|   -9.375498|    0.007844|   -0.042742|    0.068215|   -0.723793|
+-----------------------------------------------------------------------+
|        File Writing Summary       |              Filename             |
+-----------------------------------------------------------------------+
|SU2 binary restart                 |restart.dat                        |
|Paraview                           |vol_solution.vtu                   |
|Paraview surface                   |surface.vtu                        |
+-----------------------------------------------------------------------+
+--------------------------------------------------------------------------------------------------------------------+
|  Inner_Iter|    rms[Rho]|   rms[RhoU]|   rms[RhoV]|   rms[RhoE]|          CD|          CL|         CMz|   LinSolRes|
+--------------------------------------------------------------------------------------------------------------------+
|         925|   -9.726190|   -8.823754|   -9.443694|   -9.425824|    0.007846|   -0.042783|    0.068198|   -0.550327|
|         950|   -9.674393|   -8.838820|   -9.429127|   -9.346931|    0.007848|   -0.042824|    0.068181|   -0.657237|
|         975|   -9.733393|   -8.848549|   -9.435052|   -9.418218|    0.007850|   -0.042867|    0.068164|   -0.657009|
|        1000|   -9.736232|   -8.854753|   -9.433060|   -9.416661|    0.007852|   -0.042905|    0.068149|   -0.650955|
+-----------------------------------------------------------------------+
|        File Writing Summary       |              Filename             |
+-----------------------------------------------------------------------+
|SU2 binary restart                 |restart.dat                        |
|Paraview                           |vol_solution.vtu                   |
|Paraview surface                   |surface.vtu                        |
+-----------------------------------------------------------------------+
+--------------------------------------------------------------------------------------------------------------------+
|  Inner_Iter|    rms[Rho]|   rms[RhoU]|   rms[RhoV]|   rms[RhoE]|          CD|          CL|         CMz|   LinSolRes|
+--------------------------------------------------------------------------------------------------------------------+
|        1025|   -9.741217|   -8.860949|   -9.433740|   -9.417877|    0.007854|   -0.042944|    0.068133|   -0.642966|
|        1050|   -9.751692|   -8.867417|   -9.439302|   -9.426523|    0.007857|   -0.042983|    0.068118|   -0.639060|
|        1075|   -9.760757|   -8.873985|   -9.450399|   -9.433152|    0.007859|   -0.043020|    0.068103|   -0.636662|
|        1100|   -9.771927|   -8.881883|   -9.462687|   -9.441590|    0.007862|   -0.043058|    0.068088|   -0.635094|
+-----------------------------------------------------------------------+
|        File Writing Summary       |              Filename             |
+-----------------------------------------------------------------------+
|SU2 binary restart                 |restart.dat                        |
|Paraview                           |vol_solution.vtu                   |
|Paraview surface                   |surface.vtu                        |
+-----------------------------------------------------------------------+
+--------------------------------------------------------------------------------------------------------------------+
|  Inner_Iter|    rms[Rho]|   rms[RhoU]|   rms[RhoV]|   rms[RhoE]|          CD|          CL|         CMz|   LinSolRes|
+--------------------------------------------------------------------------------------------------------------------+
|        1125|   -9.786120|   -8.890961|   -9.476465|   -9.454382|    0.007864|   -0.043095|    0.068075|   -0.635846|
|        1150|   -9.800462|   -8.900295|   -9.492506|   -9.466800|    0.007866|   -0.043131|    0.068061|   -0.637497|
|        1175|   -9.814754|   -8.910016|   -9.507108|   -9.478436|    0.007869|   -0.043166|    0.068047|   -0.643288|
|        1200|   -9.829747|   -8.920435|   -9.520461|   -9.491761|    0.007871|   -0.043200|    0.068034|   -0.645250|
+-----------------------------------------------------------------------+
|        File Writing Summary       |              Filename             |
+-----------------------------------------------------------------------+
|SU2 binary restart                 |restart.dat                        |
|Paraview                           |vol_solution.vtu                   |
|Paraview surface                   |surface.vtu                        |
+-----------------------------------------------------------------------+
+--------------------------------------------------------------------------------------------------------------------+
|  Inner_Iter|    rms[Rho]|   rms[RhoU]|   rms[RhoV]|   rms[RhoE]|          CD|          CL|         CMz|   LinSolRes|
+--------------------------------------------------------------------------------------------------------------------+
|        1225|   -9.843247|   -8.931011|   -9.533237|   -9.503106|    0.007874|   -0.043234|    0.068022|   -0.649182|
|        1250|   -9.858754|   -8.941342|   -9.545894|   -9.517286|    0.007876|   -0.043267|    0.068010|   -0.652775|
|        1275|   -9.873211|   -8.951738|   -9.558843|   -9.530354|    0.007878|   -0.043298|    0.067998|   -0.657052|
|        1300|   -9.887097|   -8.962010|   -9.572864|   -9.542423|    0.007881|   -0.043328|    0.067987|   -0.664356|
+-----------------------------------------------------------------------+
|        File Writing Summary       |              Filename             |
+-----------------------------------------------------------------------+
|SU2 binary restart                 |restart.dat                        |
|Paraview                           |vol_solution.vtu                   |
|Paraview surface                   |surface.vtu                        |
+-----------------------------------------------------------------------+
+--------------------------------------------------------------------------------------------------------------------+
|  Inner_Iter|    rms[Rho]|   rms[RhoU]|   rms[RhoV]|   rms[RhoE]|          CD|          CL|         CMz|   LinSolRes|
+--------------------------------------------------------------------------------------------------------------------+
|        1325|   -9.903210|   -8.971918|   -9.588436|   -9.557548|    0.007883|   -0.043357|    0.067976|   -0.668578|
|        1350|   -9.918182|   -8.981671|   -9.605523|   -9.571187|    0.007885|   -0.043385|    0.067966|   -0.675910|
|        1375|   -9.934221|   -8.991479|   -9.623402|   -9.586228|    0.007887|   -0.043412|    0.067956|   -0.683886|
|        1400|   -9.950909|   -9.001210|   -9.641631|   -9.602675|    0.007889|   -0.043438|    0.067946|   -0.692237|
+-----------------------------------------------------------------------+
|        File Writing Summary       |              Filename             |
+-----------------------------------------------------------------------+
|SU2 binary restart                 |restart.dat                        |
|Paraview                           |vol_solution.vtu                   |
|Paraview surface                   |surface.vtu                        |
+-----------------------------------------------------------------------+
+--------------------------------------------------------------------------------------------------------------------+
|  Inner_Iter|    rms[Rho]|   rms[RhoU]|   rms[RhoV]|   rms[RhoE]|          CD|          CL|         CMz|   LinSolRes|
+--------------------------------------------------------------------------------------------------------------------+
|        1425|   -9.916406|   -9.010682|   -9.649991|   -9.553130|    0.007891|   -0.043463|    0.067937|   -0.687359|
|        1450|   -9.972343|   -9.021251|   -9.680878|   -9.618801|    0.007893|   -0.043488|    0.067928|   -0.778038|
|        1475|   -9.997948|   -9.030674|   -9.701167|   -9.649300|    0.007894|   -0.043510|    0.067920|   -0.726758|
|        1500|  -10.012827|   -9.039737|   -9.720011|   -9.663867|    0.007896|   -0.043532|    0.067912|   -0.738546|
+-----------------------------------------------------------------------+
|        File Writing Summary       |              Filename             |
+-----------------------------------------------------------------------+
|SU2 binary restart                 |restart.dat                        |
|Paraview                           |vol_solution.vtu                   |
|Paraview surface                   |surface.vtu                        |
+-----------------------------------------------------------------------+
+--------------------------------------------------------------------------------------------------------------------+
|  Inner_Iter|    rms[Rho]|   rms[RhoU]|   rms[RhoV]|   rms[RhoE]|          CD|          CL|         CMz|   LinSolRes|
+--------------------------------------------------------------------------------------------------------------------+
|        1525|  -10.016114|   -9.048701|   -9.738763|   -9.664436|    0.007898|   -0.043552|    0.067905|   -0.707840|
|        1550|  -10.035403|   -9.058680|   -9.757888|   -9.684745|    0.007900|   -0.043575|    0.067896|   -0.514766|
|        1575|  -10.044281|   -9.068367|   -9.786358|   -9.691932|    0.007901|   -0.043593|    0.067890|   -0.772623|
|        1600|  -10.066350|   -9.076215|   -9.804762|   -9.716694|    0.007903|   -0.043609|    0.067884|   -0.741938|
+-----------------------------------------------------------------------+
|        File Writing Summary       |              Filename             |
+-----------------------------------------------------------------------+
|SU2 binary restart                 |restart.dat                        |
|Paraview                           |vol_solution.vtu                   |
|Paraview surface                   |surface.vtu                        |
+-----------------------------------------------------------------------+
+--------------------------------------------------------------------------------------------------------------------+
|  Inner_Iter|    rms[Rho]|   rms[RhoU]|   rms[RhoV]|   rms[RhoE]|          CD|          CL|         CMz|   LinSolRes|
+--------------------------------------------------------------------------------------------------------------------+
|        1625|  -10.070069|   -9.084389|   -9.827229|   -9.720811|    0.007904|   -0.043625|    0.067878|   -0.813513|
|        1650|  -10.045682|   -9.092282|   -9.839675|   -9.688752|    0.007905|   -0.043640|    0.067872|   -0.747620|
|        1675|  -10.096628|   -9.100386|   -9.872723|   -9.752731|    0.007907|   -0.043654|    0.067867|   -0.830217|
|        1700|  -10.113195|   -9.107924|   -9.890866|   -9.774174|    0.007908|   -0.043667|    0.067863|   -0.812192|
+-----------------------------------------------------------------------+
|        File Writing Summary       |              Filename             |
+-----------------------------------------------------------------------+
|SU2 binary restart                 |restart.dat                        |
|Paraview                           |vol_solution.vtu                   |
|Paraview surface                   |surface.vtu                        |
+-----------------------------------------------------------------------+
+--------------------------------------------------------------------------------------------------------------------+
|  Inner_Iter|    rms[Rho]|   rms[RhoU]|   rms[RhoV]|   rms[RhoE]|          CD|          CL|         CMz|   LinSolRes|
+--------------------------------------------------------------------------------------------------------------------+
|        1725|  -10.117188|   -9.115673|   -9.914937|   -9.780224|    0.007909|   -0.043678|    0.067858|   -0.896814|
|        1750|  -10.136552|   -9.122691|   -9.936773|   -9.805562|    0.007910|   -0.043690|    0.067854|   -0.854282|
|        1775|  -10.113804|   -9.129217|   -9.946714|   -9.770782|    0.007911|   -0.043700|    0.067850|   -0.865601|
|        1800|  -10.146950|   -9.136294|   -9.985953|   -9.821590|    0.007912|   -0.043709|    0.067847|   -0.781600|
+-----------------------------------------------------------------------+
|        File Writing Summary       |              Filename             |
+-----------------------------------------------------------------------+
|SU2 binary restart                 |restart.dat                        |
|Paraview                           |vol_solution.vtu                   |
|Paraview surface                   |surface.vtu                        |
+-----------------------------------------------------------------------+
+--------------------------------------------------------------------------------------------------------------------+
|  Inner_Iter|    rms[Rho]|   rms[RhoU]|   rms[RhoV]|   rms[RhoE]|          CD|          CL|         CMz|   LinSolRes|
+--------------------------------------------------------------------------------------------------------------------+
|        1825|  -10.116759|   -9.142285|   -9.987719|   -9.773712|    0.007913|   -0.043717|    0.067844|   -0.902013|
|        1850|  -10.135131|   -9.149243|  -10.017145|   -9.803241|    0.007914|   -0.043724|    0.067841|   -0.709465|
|        1875|  -10.147914|   -9.155621|  -10.045160|   -9.824211|    0.007915|   -0.043731|    0.067838|   -0.762882|
|        1900|  -10.109529|   -9.160915|  -10.043717|   -9.762140|    0.007915|   -0.043736|    0.067836|   -0.707127|
+-----------------------------------------------------------------------+
|        File Writing Summary       |              Filename             |
+-----------------------------------------------------------------------+
|SU2 binary restart                 |restart.dat                        |
|Paraview                           |vol_solution.vtu                   |
|Paraview surface                   |surface.vtu                        |
+-----------------------------------------------------------------------+
+--------------------------------------------------------------------------------------------------------------------+
|  Inner_Iter|    rms[Rho]|   rms[RhoU]|   rms[RhoV]|   rms[RhoE]|          CD|          CL|         CMz|   LinSolRes|
+--------------------------------------------------------------------------------------------------------------------+
|        1925|  -10.124096|   -9.166791|  -10.063362|   -9.770107|    0.007916|   -0.043742|    0.067833|   -0.723452|
|        1950|  -10.130327|   -9.172957|  -10.081916|   -9.786016|    0.007917|   -0.043747|    0.067831|   -0.739366|
|        1975|  -10.080372|   -9.181125|  -10.061051|   -9.735315|    0.007918|   -0.043752|    0.067829|   -0.732844|
|        2000|  -10.127587|   -9.190909|  -10.122741|   -9.798590|    0.007919|   -0.043758|    0.067826|   -0.618160|
+-----------------------------------------------------------------------+
|        File Writing Summary       |              Filename             |
+-----------------------------------------------------------------------+
|SU2 binary restart                 |restart.dat                        |
|Paraview                           |vol_solution.vtu                   |
|Paraview surface                   |surface.vtu                        |
+-----------------------------------------------------------------------+
+--------------------------------------------------------------------------------------------------------------------+
|  Inner_Iter|    rms[Rho]|   rms[RhoU]|   rms[RhoV]|   rms[RhoE]|          CD|          CL|         CMz|   LinSolRes|
+--------------------------------------------------------------------------------------------------------------------+
|        2025|  -10.112196|   -9.203314|  -10.135214|   -9.770796|    0.007921|   -0.043763|    0.067823|   -0.650854|
|        2050|  -10.165003|   -9.210387|  -10.195224|   -9.851311|    0.007921|   -0.043765|    0.067822|   -0.806154|
|        2075|  -10.176352|   -9.216467|  -10.210596|   -9.885164|    0.007922|   -0.043766|    0.067821|   -0.787767|
|        2100|  -10.144095|   -9.221248|  -10.159596|   -9.828996|    0.007923|   -0.043767|    0.067820|   -0.750259|
+-----------------------------------------------------------------------+
|        File Writing Summary       |              Filename             |
+-----------------------------------------------------------------------+
|SU2 binary restart                 |restart.dat                        |
|Paraview                           |vol_solution.vtu                   |
|Paraview surface                   |surface.vtu                        |
+-----------------------------------------------------------------------+
+--------------------------------------------------------------------------------------------------------------------+
|  Inner_Iter|    rms[Rho]|   rms[RhoU]|   rms[RhoV]|   rms[RhoE]|          CD|          CL|         CMz|   LinSolRes|
+--------------------------------------------------------------------------------------------------------------------+
|        2125|  -10.154893|   -9.227599|  -10.217638|   -9.854975|    0.007923|   -0.043767|    0.067820|   -0.828655|
|        2150|  -10.159879|   -9.232229|  -10.224026|   -9.853376|    0.007924|   -0.043766|    0.067819|   -0.787019|
|        2175|  -10.165607|   -9.236841|  -10.229568|   -9.863858|    0.007924|   -0.043766|    0.067819|   -0.783088|
|        2200|  -10.161755|   -9.241572|  -10.228950|   -9.865214|    0.007925|   -0.043765|    0.067818|   -0.769766|
+-----------------------------------------------------------------------+
|        File Writing Summary       |              Filename             |
+-----------------------------------------------------------------------+
|SU2 binary restart                 |restart.dat                        |
|Paraview                           |vol_solution.vtu                   |
|Paraview surface                   |surface.vtu                        |
+-----------------------------------------------------------------------+
+--------------------------------------------------------------------------------------------------------------------+
|  Inner_Iter|    rms[Rho]|   rms[RhoU]|   rms[RhoV]|   rms[RhoE]|          CD|          CL|         CMz|   LinSolRes|
+--------------------------------------------------------------------------------------------------------------------+
|        2225|  -10.122739|   -9.249664|  -10.199317|   -9.806663|    0.007926|   -0.043762|    0.067818|   -0.693036|
|        2250|  -10.162116|   -9.255347|  -10.227280|   -9.866551|    0.007926|   -0.043761|    0.067818|   -0.741164|
|        2275|  -10.156383|   -9.261883|  -10.229423|   -9.873444|    0.007926|   -0.043758|    0.067819|   -0.738269|
|        2300|  -10.155624|   -9.268644|  -10.230155|   -9.867351|    0.007927|   -0.043756|    0.067819|   -0.662036|
+-----------------------------------------------------------------------+
|        File Writing Summary       |              Filename             |
+-----------------------------------------------------------------------+
|SU2 binary restart                 |restart.dat                        |
|Paraview                           |vol_solution.vtu                   |
|Paraview surface                   |surface.vtu                        |
+-----------------------------------------------------------------------+
+--------------------------------------------------------------------------------------------------------------------+
|  Inner_Iter|    rms[Rho]|   rms[RhoU]|   rms[RhoV]|   rms[RhoE]|          CD|          CL|         CMz|   LinSolRes|
+--------------------------------------------------------------------------------------------------------------------+
|        2325|  -10.143347|   -9.275483|  -10.226517|   -9.860430|    0.007927|   -0.043751|    0.067819|   -0.652228|
|        2350|  -10.152827|   -9.282683|  -10.229877|   -9.873927|    0.007928|   -0.043747|    0.067820|   -0.702364|
|        2375|  -10.171813|   -9.288511|  -10.238939|   -9.919586|    0.007928|   -0.043744|    0.067820|   -0.702181|
|        2400|  -10.157184|   -9.294029|  -10.222465|   -9.905422|    0.007929|   -0.043739|    0.067822|   -0.865756|
+-----------------------------------------------------------------------+
|        File Writing Summary       |              Filename             |
+-----------------------------------------------------------------------+
|SU2 binary restart                 |restart.dat                        |
|Paraview                           |vol_solution.vtu                   |
|Paraview surface                   |surface.vtu                        |
+-----------------------------------------------------------------------+
+--------------------------------------------------------------------------------------------------------------------+
|  Inner_Iter|    rms[Rho]|   rms[RhoU]|   rms[RhoV]|   rms[RhoE]|          CD|          CL|         CMz|   LinSolRes|
+--------------------------------------------------------------------------------------------------------------------+
|        2425|  -10.180076|   -9.299375|  -10.241821|   -9.935940|    0.007929|   -0.043735|    0.067822|   -0.737035|
|        2450|  -10.158481|   -9.304348|  -10.211341|   -9.909211|    0.007929|   -0.043731|    0.067823|   -0.701276|
|        2475|  -10.162688|   -9.310575|  -10.219824|   -9.918176|    0.007930|   -0.043725|    0.067825|   -0.783036|
|        2500|  -10.181662|   -9.316058|  -10.222372|   -9.960753|    0.007930|   -0.043721|    0.067825|   -0.828027|
+-----------------------------------------------------------------------+
|        File Writing Summary       |              Filename             |
+-----------------------------------------------------------------------+
|SU2 binary restart                 |restart.dat                        |
|Paraview                           |vol_solution.vtu                   |
|Paraview surface                   |surface.vtu                        |
+-----------------------------------------------------------------------+
+--------------------------------------------------------------------------------------------------------------------+
|  Inner_Iter|    rms[Rho]|   rms[RhoU]|   rms[RhoV]|   rms[RhoE]|          CD|          CL|         CMz|   LinSolRes|
+--------------------------------------------------------------------------------------------------------------------+
|        2525|  -10.181310|   -9.321771|  -10.235710|   -9.966830|    0.007930|   -0.043716|    0.067827|   -0.951604|
|        2550|  -10.200961|   -9.327258|  -10.231114|  -10.021434|    0.007931|   -0.043710|    0.067828|   -0.701192|
|        2575|  -10.195692|   -9.332515|  -10.225412|  -10.009881|    0.007931|   -0.043705|    0.067829|   -0.801970|
|        2600|  -10.185470|   -9.338434|  -10.229071|   -9.991529|    0.007931|   -0.043699|    0.067831|   -0.836750|
+-----------------------------------------------------------------------+
|        File Writing Summary       |              Filename             |
+-----------------------------------------------------------------------+
|SU2 binary restart                 |restart.dat                        |
|Paraview                           |vol_solution.vtu                   |
|Paraview surface                   |surface.vtu                        |
+-----------------------------------------------------------------------+
+--------------------------------------------------------------------------------------------------------------------+
|  Inner_Iter|    rms[Rho]|   rms[RhoU]|   rms[RhoV]|   rms[RhoE]|          CD|          CL|         CMz|   LinSolRes|
+--------------------------------------------------------------------------------------------------------------------+
|        2625|  -10.194583|   -9.344088|  -10.220153|  -10.014391|    0.007931|   -0.043693|    0.067832|   -0.783910|
|        2650|  -10.186117|   -9.350045|  -10.227315|   -9.996172|    0.007932|   -0.043688|    0.067833|   -0.822745|
|        2675|  -10.192651|   -9.355584|  -10.215410|  -10.021433|    0.007932|   -0.043681|    0.067835|   -0.767712|
|        2700|  -10.187828|   -9.361285|  -10.218572|  -10.002469|    0.007932|   -0.043675|    0.067837|   -0.807511|
+-----------------------------------------------------------------------+
|        File Writing Summary       |              Filename             |
+-----------------------------------------------------------------------+
|SU2 binary restart                 |restart.dat                        |
|Paraview                           |vol_solution.vtu                   |
|Paraview surface                   |surface.vtu                        |
+-----------------------------------------------------------------------+
+--------------------------------------------------------------------------------------------------------------------+
|  Inner_Iter|    rms[Rho]|   rms[RhoU]|   rms[RhoV]|   rms[RhoE]|          CD|          CL|         CMz|   LinSolRes|
+--------------------------------------------------------------------------------------------------------------------+
|        2725|  -10.192477|   -9.366889|  -10.210910|  -10.026984|    0.007932|   -0.043669|    0.067838|   -0.751572|
|        2750|  -10.186286|   -9.372747|  -10.215064|  -10.007568|    0.007933|   -0.043662|    0.067840|   -0.792272|
|        2775|  -10.194183|   -9.378180|  -10.207690|  -10.033591|    0.007933|   -0.043656|    0.067842|   -0.736587|
|        2800|  -10.186602|   -9.384064|  -10.212891|  -10.014595|    0.007933|   -0.043649|    0.067843|   -0.777265|
+-----------------------------------------------------------------------+
|        File Writing Summary       |              Filename             |
+-----------------------------------------------------------------------+
|SU2 binary restart                 |restart.dat                        |
|Paraview                           |vol_solution.vtu                   |
|Paraview surface                   |surface.vtu                        |
+-----------------------------------------------------------------------+
+--------------------------------------------------------------------------------------------------------------------+
|  Inner_Iter|    rms[Rho]|   rms[RhoU]|   rms[RhoV]|   rms[RhoE]|          CD|          CL|         CMz|   LinSolRes|
+--------------------------------------------------------------------------------------------------------------------+
|        2825|  -10.194268|   -9.389683|  -10.205101|  -10.040926|    0.007933|   -0.043642|    0.067845|   -0.723439|
|        2850|  -10.187354|   -9.395667|  -10.210048|  -10.019647|    0.007934|   -0.043636|    0.067847|   -0.766211|
|        2875|  -10.194461|   -9.401216|  -10.201486|  -10.047557|    0.007934|   -0.043629|    0.067849|   -0.710895|
|        2900|  -10.187920|   -9.407193|  -10.205573|  -10.025610|    0.007934|   -0.043622|    0.067851|   -0.754508|
+-----------------------------------------------------------------------+
|        File Writing Summary       |              Filename             |
+-----------------------------------------------------------------------+
|SU2 binary restart                 |restart.dat                        |
|Paraview                           |vol_solution.vtu                   |
|Paraview surface                   |surface.vtu                        |
+-----------------------------------------------------------------------+
+--------------------------------------------------------------------------------------------------------------------+
|  Inner_Iter|    rms[Rho]|   rms[RhoU]|   rms[RhoV]|   rms[RhoE]|          CD|          CL|         CMz|   LinSolRes|
+--------------------------------------------------------------------------------------------------------------------+
|        2925|  -10.195234|   -9.412841|  -10.198984|  -10.053931|    0.007934|   -0.043615|    0.067852|   -0.699032|
|        2950|  -10.188497|   -9.418890|  -10.204085|  -10.032335|    0.007934|   -0.043608|    0.067854|   -0.742356|
|        2975|  -10.196841|   -9.424487|  -10.198042|  -10.061852|    0.007935|   -0.043601|    0.067856|   -0.688770|
|        3000|  -10.189590|   -9.430657|  -10.204271|  -10.039299|    0.007935|   -0.043594|    0.067858|   -0.734119|
+-----------------------------------------------------------------------+
|        File Writing Summary       |              Filename             |
+-----------------------------------------------------------------------+
|SU2 binary restart                 |restart.dat                        |
|Paraview                           |vol_solution.vtu                   |
|Paraview surface                   |surface.vtu                        |
+-----------------------------------------------------------------------+
+--------------------------------------------------------------------------------------------------------------------+
|  Inner_Iter|    rms[Rho]|   rms[RhoU]|   rms[RhoV]|   rms[RhoE]|          CD|          CL|         CMz|   LinSolRes|
+--------------------------------------------------------------------------------------------------------------------+
|        3025|  -10.197716|   -9.436350|  -10.198452|  -10.069225|    0.007935|   -0.043587|    0.067860|   -0.678917|
|        3050|  -10.191415|   -9.442509|  -10.205127|  -10.047010|    0.007935|   -0.043580|    0.067862|   -0.722997|
|        3075|  -10.199287|   -9.448218|  -10.200152|  -10.077817|    0.007935|   -0.043573|    0.067864|   -0.669985|
|        3100|  -10.192796|   -9.454502|  -10.206420|  -10.054412|    0.007936|   -0.043566|    0.067866|   -0.716470|
+-----------------------------------------------------------------------+
|        File Writing Summary       |              Filename             |
+-----------------------------------------------------------------------+
|SU2 binary restart                 |restart.dat                        |
|Paraview                           |vol_solution.vtu                   |
|Paraview surface                   |surface.vtu                        |
+-----------------------------------------------------------------------+
+--------------------------------------------------------------------------------------------------------------------+
|  Inner_Iter|    rms[Rho]|   rms[RhoU]|   rms[RhoV]|   rms[RhoE]|          CD|          CL|         CMz|   LinSolRes|
+--------------------------------------------------------------------------------------------------------------------+
|        3125|  -10.201144|   -9.460234|  -10.201566|  -10.086118|    0.007936|   -0.043559|    0.067868|   -0.661899|
|        3150|  -10.194537|   -9.466536|  -10.207994|  -10.062468|    0.007936|   -0.043552|    0.067870|   -0.708179|
|        3175|  -10.202791|   -9.472299|  -10.203267|  -10.093938|    0.007936|   -0.043545|    0.067872|   -0.654638|
|        3200|  -10.196606|   -9.478659|  -10.210377|  -10.070923|    0.007936|   -0.043537|    0.067874|   -0.700050|
+-----------------------------------------------------------------------+
|        File Writing Summary       |              Filename             |
+-----------------------------------------------------------------------+
|SU2 binary restart                 |restart.dat                        |
|Paraview                           |vol_solution.vtu                   |
|Paraview surface                   |surface.vtu                        |
+-----------------------------------------------------------------------+
+--------------------------------------------------------------------------------------------------------------------+
|  Inner_Iter|    rms[Rho]|   rms[RhoU]|   rms[RhoV]|   rms[RhoE]|          CD|          CL|         CMz|   LinSolRes|
+--------------------------------------------------------------------------------------------------------------------+
|        3225|  -10.204679|   -9.484835|  -10.213865|  -10.102632|    0.007936|   -0.043530|    0.067876|   -0.700189|
|        3250|  -10.204792|   -9.491072|  -10.215842|  -10.107739|    0.007937|   -0.043523|    0.067878|   -0.696671|
|        3275|  -10.207553|   -9.497270|  -10.216045|  -10.113577|    0.007937|   -0.043516|    0.067880|   -0.693054|
|        3300|  -10.207542|   -9.503553|  -10.218757|  -10.117282|    0.007937|   -0.043509|    0.067882|   -0.689980|
+-----------------------------------------------------------------------+
|        File Writing Summary       |              Filename             |
+-----------------------------------------------------------------------+
|SU2 binary restart                 |restart.dat                        |
|Paraview                           |vol_solution.vtu                   |
|Paraview surface                   |surface.vtu                        |
+-----------------------------------------------------------------------+
+--------------------------------------------------------------------------------------------------------------------+
|  Inner_Iter|    rms[Rho]|   rms[RhoU]|   rms[RhoV]|   rms[RhoE]|          CD|          CL|         CMz|   LinSolRes|
+--------------------------------------------------------------------------------------------------------------------+
|        3325|  -10.208871|   -9.509880|  -10.220909|  -10.122374|    0.007937|   -0.043502|    0.067884|   -0.688574|
|        3350|  -10.210781|   -9.516235|  -10.223454|  -10.127524|    0.007937|   -0.043495|    0.067886|   -0.686351|
|        3375|  -10.211689|   -9.522607|  -10.226712|  -10.133188|    0.007937|   -0.043487|    0.067888|   -0.683946|
|        3400|  -10.213292|   -9.528979|  -10.230633|  -10.138312|    0.007937|   -0.043480|    0.067890|   -0.680693|
+-----------------------------------------------------------------------+
|        File Writing Summary       |              Filename             |
+-----------------------------------------------------------------------+
|SU2 binary restart                 |restart.dat                        |
|Paraview                           |vol_solution.vtu                   |
|Paraview surface                   |surface.vtu                        |
+-----------------------------------------------------------------------+
+--------------------------------------------------------------------------------------------------------------------+
|  Inner_Iter|    rms[Rho]|   rms[RhoU]|   rms[RhoV]|   rms[RhoE]|          CD|          CL|         CMz|   LinSolRes|
+--------------------------------------------------------------------------------------------------------------------+
|        3425|  -10.215063|   -9.535222|  -10.235011|  -10.144684|    0.007938|   -0.043473|    0.067892|   -0.678410|
|        3450|  -10.216261|   -9.541488|  -10.238924|  -10.149671|    0.007938|   -0.043466|    0.067894|   -0.677727|
|        3475|  -10.217850|   -9.547941|  -10.242629|  -10.154902|    0.007938|   -0.043460|    0.067896|   -0.676370|
|        3500|  -10.219333|   -9.554489|  -10.246323|  -10.160618|    0.007938|   -0.043453|    0.067898|   -0.673917|
+-----------------------------------------------------------------------+
|        File Writing Summary       |              Filename             |
+-----------------------------------------------------------------------+
|SU2 binary restart                 |restart.dat                        |
|Paraview                           |vol_solution.vtu                   |
|Paraview surface                   |surface.vtu                        |
+-----------------------------------------------------------------------+
+--------------------------------------------------------------------------------------------------------------------+
|  Inner_Iter|    rms[Rho]|   rms[RhoU]|   rms[RhoV]|   rms[RhoE]|          CD|          CL|         CMz|   LinSolRes|
+--------------------------------------------------------------------------------------------------------------------+
|        3525|  -10.220952|   -9.560903|  -10.249617|  -10.166608|    0.007938|   -0.043446|    0.067900|   -0.671400|
|        3550|  -10.222578|   -9.567311|  -10.253081|  -10.172009|    0.007938|   -0.043439|    0.067902|   -0.670103|
|        3575|  -10.223789|   -9.573772|  -10.257026|  -10.176678|    0.007938|   -0.043432|    0.067904|   -0.669569|
|        3600|  -10.225520|   -9.580218|  -10.260901|  -10.182708|    0.007938|   -0.043426|    0.067906|   -0.667255|
+-----------------------------------------------------------------------+
|        File Writing Summary       |              Filename             |
+-----------------------------------------------------------------------+
|SU2 binary restart                 |restart.dat                        |
|Paraview                           |vol_solution.vtu                   |
|Paraview surface                   |surface.vtu                        |
+-----------------------------------------------------------------------+
+--------------------------------------------------------------------------------------------------------------------+
|  Inner_Iter|    rms[Rho]|   rms[RhoU]|   rms[RhoV]|   rms[RhoE]|          CD|          CL|         CMz|   LinSolRes|
+--------------------------------------------------------------------------------------------------------------------+
|        3625|  -10.227359|   -9.586637|  -10.265255|  -10.189209|    0.007938|   -0.043419|    0.067908|   -0.664759|
|        3650|  -10.228752|   -9.593126|  -10.269716|  -10.194466|    0.007939|   -0.043413|    0.067910|   -0.664179|
|        3675|  -10.230340|   -9.599665|  -10.274009|  -10.199641|    0.007939|   -0.043406|    0.067912|   -0.663631|
|        3700|  -10.232113|   -9.606167|  -10.278455|  -10.206025|    0.007939|   -0.043400|    0.067913|   -0.661689|
+-----------------------------------------------------------------------+
|        File Writing Summary       |              Filename             |
+-----------------------------------------------------------------------+
|SU2 binary restart                 |restart.dat                        |
|Paraview                           |vol_solution.vtu                   |
|Paraview surface                   |surface.vtu                        |
+-----------------------------------------------------------------------+
+--------------------------------------------------------------------------------------------------------------------+
|  Inner_Iter|    rms[Rho]|   rms[RhoU]|   rms[RhoV]|   rms[RhoE]|          CD|          CL|         CMz|   LinSolRes|
+--------------------------------------------------------------------------------------------------------------------+
|        3725|  -10.233809|   -9.612675|  -10.283008|  -10.212335|    0.007939|   -0.043394|    0.067915|   -0.659788|
|        3750|  -10.235414|   -9.619224|  -10.287618|  -10.217698|    0.007939|   -0.043387|    0.067917|   -0.659485|
|        3775|  -10.237003|   -9.625773|  -10.292142|  -10.223231|    0.007939|   -0.043381|    0.067919|   -0.659042|
|        3800|  -10.238806|   -9.632291|  -10.296768|  -10.229792|    0.007939|   -0.043375|    0.067921|   -0.656721|
+-----------------------------------------------------------------------+
|        File Writing Summary       |              Filename             |
+-----------------------------------------------------------------------+
|SU2 binary restart                 |restart.dat                        |
|Paraview                           |vol_solution.vtu                   |
|Paraview surface                   |surface.vtu                        |
+-----------------------------------------------------------------------+
+--------------------------------------------------------------------------------------------------------------------+
|  Inner_Iter|    rms[Rho]|   rms[RhoU]|   rms[RhoV]|   rms[RhoE]|          CD|          CL|         CMz|   LinSolRes|
+--------------------------------------------------------------------------------------------------------------------+
|        3825|  -10.240570|   -9.638820|  -10.301697|  -10.236037|    0.007939|   -0.043369|    0.067922|   -0.655570|
|        3850|  -10.242090|   -9.645395|  -10.306486|  -10.241150|    0.007939|   -0.043363|    0.067924|   -0.656015|
|        3875|  -10.243865|   -9.651967|  -10.311184|  -10.247345|    0.007939|   -0.043357|    0.067926|   -0.654478|
|        3900|  -10.245717|   -9.658524|  -10.316202|  -10.254165|    0.007940|   -0.043351|    0.067928|   -0.652527|
+-----------------------------------------------------------------------+
|        File Writing Summary       |              Filename             |
+-----------------------------------------------------------------------+
|SU2 binary restart                 |restart.dat                        |
|Paraview                           |vol_solution.vtu                   |
|Paraview surface                   |surface.vtu                        |
+-----------------------------------------------------------------------+
+--------------------------------------------------------------------------------------------------------------------+
|  Inner_Iter|    rms[Rho]|   rms[RhoU]|   rms[RhoV]|   rms[RhoE]|          CD|          CL|         CMz|   LinSolRes|
+--------------------------------------------------------------------------------------------------------------------+
|        3925|  -10.247296|   -9.665105|  -10.321190|  -10.259460|    0.007940|   -0.043345|    0.067929|   -0.652795|
|        3950|  -10.248995|   -9.671693|  -10.326046|  -10.265156|    0.007940|   -0.043340|    0.067931|   -0.652320|
|        3975|  -10.250861|   -9.678259|  -10.331142|  -10.272096|    0.007940|   -0.043334|    0.067933|   -0.650265|
|        4000|  -10.252554|   -9.684841|  -10.336292|  -10.277935|    0.007940|   -0.043328|    0.067934|   -0.649901|
+-----------------------------------------------------------------------+
|        File Writing Summary       |              Filename             |
+-----------------------------------------------------------------------+
|SU2 binary restart                 |restart.dat                        |
|Paraview                           |vol_solution.vtu                   |
|Paraview surface                   |surface.vtu                        |
+-----------------------------------------------------------------------+
+--------------------------------------------------------------------------------------------------------------------+
|  Inner_Iter|    rms[Rho]|   rms[RhoU]|   rms[RhoV]|   rms[RhoE]|          CD|          CL|         CMz|   LinSolRes|
+--------------------------------------------------------------------------------------------------------------------+
|        4025|  -10.254203|   -9.691448|  -10.341248|  -10.283336|    0.007940|   -0.043323|    0.067936|   -0.650147|
|        4050|  -10.256025|   -9.698030|  -10.346301|  -10.290020|    0.007940|   -0.043317|    0.067937|   -0.648466|
|        4075|  -10.257806|   -9.704602|  -10.351538|  -10.296336|    0.007940|   -0.043312|    0.067939|   -0.647419|
|        4100|  -10.259454|   -9.711203|  -10.356640|  -10.301715|    0.007940|   -0.043306|    0.067941|   -0.647963|
+-----------------------------------------------------------------------+
|        File Writing Summary       |              Filename             |
+-----------------------------------------------------------------------+
|SU2 binary restart                 |restart.dat                        |
|Paraview                           |vol_solution.vtu                   |
|Paraview surface                   |surface.vtu                        |
+-----------------------------------------------------------------------+
+--------------------------------------------------------------------------------------------------------------------+
|  Inner_Iter|    rms[Rho]|   rms[RhoU]|   rms[RhoV]|   rms[RhoE]|          CD|          CL|         CMz|   LinSolRes|
+--------------------------------------------------------------------------------------------------------------------+
|        4125|  -10.261230|   -9.717792|  -10.361716|  -10.308060|    0.007940|   -0.043301|    0.067942|   -0.646877|
|        4150|  -10.263064|   -9.724363|  -10.367031|  -10.314704|    0.007940|   -0.043296|    0.067944|   -0.645360|
|        4175|  -10.264732|   -9.730956|  -10.372252|  -10.320201|    0.007940|   -0.043291|    0.067945|   -0.645892|
|        4200|  -10.266466|   -9.737549|  -10.377322|  -10.326199|    0.007940|   -0.043286|    0.067947|   -0.645349|
+-----------------------------------------------------------------------+
|        File Writing Summary       |              Filename             |
+-----------------------------------------------------------------------+
|SU2 binary restart                 |restart.dat                        |
|Paraview                           |vol_solution.vtu                   |
|Paraview surface                   |surface.vtu                        |
+-----------------------------------------------------------------------+
+--------------------------------------------------------------------------------------------------------------------+
|  Inner_Iter|    rms[Rho]|   rms[RhoU]|   rms[RhoV]|   rms[RhoE]|          CD|          CL|         CMz|   LinSolRes|
+--------------------------------------------------------------------------------------------------------------------+
|        4225|  -10.268320|   -9.744123|  -10.382635|  -10.332999|    0.007941|   -0.043281|    0.067948|   -0.643588|
|        4250|  -10.270027|   -9.750719|  -10.387937|  -10.338707|    0.007941|   -0.043276|    0.067949|   -0.644037|
|        4275|  -10.271750|   -9.757321|  -10.393057|  -10.344508|    0.007941|   -0.043271|    0.067951|   -0.644008|
|        4300|  -10.273612|   -9.763900|  -10.398452|  -10.351402|    0.007941|   -0.043266|    0.067952|   -0.642179|
+-----------------------------------------------------------------------+
|        File Writing Summary       |              Filename             |
+-----------------------------------------------------------------------+
|SU2 binary restart                 |restart.dat                        |
|Paraview                           |vol_solution.vtu                   |
|Paraview surface                   |surface.vtu                        |
+-----------------------------------------------------------------------+
+--------------------------------------------------------------------------------------------------------------------+
|  Inner_Iter|    rms[Rho]|   rms[RhoU]|   rms[RhoV]|   rms[RhoE]|          CD|          CL|         CMz|   LinSolRes|
+--------------------------------------------------------------------------------------------------------------------+
|        4325|  -10.275348|   -9.770484|  -10.403935|  -10.357282|    0.007941|   -0.043261|    0.067954|   -0.642474|
|        4350|  -10.277065|   -9.777068|  -10.409232|  -10.362939|    0.007941|   -0.043256|    0.067955|   -0.642786|
|        4375|  -10.278934|   -9.783632|  -10.414790|  -10.369908|    0.007941|   -0.043252|    0.067956|   -0.641011|
|        4400|  -10.280700|   -9.790225|  -10.420419|  -10.375970|    0.007941|   -0.043247|    0.067958|   -0.641254|
+-----------------------------------------------------------------------+
|        File Writing Summary       |              Filename             |
+-----------------------------------------------------------------------+
|SU2 binary restart                 |restart.dat                        |
|Paraview                           |vol_solution.vtu                   |
|Paraview surface                   |surface.vtu                        |
+-----------------------------------------------------------------------+
+--------------------------------------------------------------------------------------------------------------------+
|  Inner_Iter|    rms[Rho]|   rms[RhoU]|   rms[RhoV]|   rms[RhoE]|          CD|          CL|         CMz|   LinSolRes|
+--------------------------------------------------------------------------------------------------------------------+
|        4425|  -10.282423|   -9.796839|  -10.425743|  -10.381565|    0.007941|   -0.043242|    0.067959|   -0.641805|
|        4450|  -10.284290|   -9.803425|  -10.431232|  -10.388525|    0.007941|   -0.043238|    0.067960|   -0.640073|
|        4475|  -10.286062|   -9.810013|  -10.436823|  -10.394600|    0.007941|   -0.043233|    0.067962|   -0.640245|
|        4500|  -10.287780|   -9.816607|  -10.442163|  -10.400099|    0.007941|   -0.043229|    0.067963|   -0.640877|
+-----------------------------------------------------------------------+
|        File Writing Summary       |              Filename             |
+-----------------------------------------------------------------------+
|SU2 binary restart                 |restart.dat                        |
|Paraview                           |vol_solution.vtu                   |
|Paraview surface                   |surface.vtu                        |
+-----------------------------------------------------------------------+
+--------------------------------------------------------------------------------------------------------------------+
|  Inner_Iter|    rms[Rho]|   rms[RhoU]|   rms[RhoV]|   rms[RhoE]|          CD|          CL|         CMz|   LinSolRes|
+--------------------------------------------------------------------------------------------------------------------+
|        4525|  -10.289646|   -9.823170|  -10.447715|  -10.407053|    0.007941|   -0.043225|    0.067964|   -0.639172|
|        4550|  -10.291429|   -9.829743|  -10.453406|  -10.413170|    0.007941|   -0.043220|    0.067965|   -0.639394|
|        4575|  -10.293156|   -9.836334|  -10.458832|  -10.418691|    0.007941|   -0.043216|    0.067967|   -0.640103|
|        4600|  -10.295029|   -9.842906|  -10.464432|  -10.425696|    0.007941|   -0.043212|    0.067968|   -0.638464|
+-----------------------------------------------------------------------+
|        File Writing Summary       |              Filename             |
+-----------------------------------------------------------------------+
|SU2 binary restart                 |restart.dat                        |
|Paraview                           |vol_solution.vtu                   |
|Paraview surface                   |surface.vtu                        |
+-----------------------------------------------------------------------+
+--------------------------------------------------------------------------------------------------------------------+
|  Inner_Iter|    rms[Rho]|   rms[RhoU]|   rms[RhoV]|   rms[RhoE]|          CD|          CL|         CMz|   LinSolRes|
+--------------------------------------------------------------------------------------------------------------------+
|        4625|  -10.296814|   -9.849494|  -10.470120|  -10.431784|    0.007941|   -0.043208|    0.067969|   -0.638792|
|        4650|  -10.298549|   -9.856097|  -10.475520|  -10.437314|    0.007941|   -0.043204|    0.067970|   -0.639458|
|        4675|  -10.300424|   -9.862673|  -10.481111|  -10.444326|    0.007941|   -0.043200|    0.067971|   -0.637832|
|        4700|  -10.302208|   -9.869269|  -10.486788|  -10.450324|    0.007941|   -0.043196|    0.067973|   -0.638306|
+-----------------------------------------------------------------------+
|        File Writing Summary       |              Filename             |
+-----------------------------------------------------------------------+
|SU2 binary restart                 |restart.dat                        |
|Paraview                           |vol_solution.vtu                   |
|Paraview surface                   |surface.vtu                        |
+-----------------------------------------------------------------------+
+--------------------------------------------------------------------------------------------------------------------+
|  Inner_Iter|    rms[Rho]|   rms[RhoU]|   rms[RhoV]|   rms[RhoE]|          CD|          CL|         CMz|   LinSolRes|
+--------------------------------------------------------------------------------------------------------------------+
|        4725|  -10.303962|   -9.875877|  -10.492208|  -10.455945|    0.007942|   -0.043192|    0.067974|   -0.638906|
|        4750|  -10.305842|   -9.882457|  -10.497864|  -10.462992|    0.007942|   -0.043188|    0.067975|   -0.637336|
|        4775|  -10.307624|   -9.889055|  -10.503589|  -10.468881|    0.007942|   -0.043184|    0.067976|   -0.638018|
|        4800|  -10.309397|   -9.895656|  -10.509090|  -10.474626|    0.007942|   -0.043181|    0.067977|   -0.638469|
+-----------------------------------------------------------------------+
|        File Writing Summary       |              Filename             |
+-----------------------------------------------------------------------+
|SU2 binary restart                 |restart.dat                        |
|Paraview                           |vol_solution.vtu                   |
|Paraview surface                   |surface.vtu                        |
+-----------------------------------------------------------------------+
+--------------------------------------------------------------------------------------------------------------------+
|  Inner_Iter|    rms[Rho]|   rms[RhoU]|   rms[RhoV]|   rms[RhoE]|          CD|          CL|         CMz|   LinSolRes|
+--------------------------------------------------------------------------------------------------------------------+
|        4825|  -10.311280|   -9.902224|  -10.514875|  -10.481691|    0.007942|   -0.043177|    0.067978|   -0.636986|
|        4850|  -10.313061|   -9.908816|  -10.520673|  -10.487467|    0.007942|   -0.043173|    0.067979|   -0.637932|
|        4875|  -10.314857|   -9.915419|  -10.526242|  -10.493401|    0.007942|   -0.043170|    0.067980|   -0.638175|
|        4900|  -10.316742|   -9.922002|  -10.532057|  -10.500455|    0.007942|   -0.043166|    0.067981|   -0.636852|
+-----------------------------------------------------------------------+
|        File Writing Summary       |              Filename             |
+-----------------------------------------------------------------------+
|SU2 binary restart                 |restart.dat                        |
|Paraview                           |vol_solution.vtu                   |
|Paraview surface                   |surface.vtu                        |
+-----------------------------------------------------------------------+
+--------------------------------------------------------------------------------------------------------------------+
|  Inner_Iter|    rms[Rho]|   rms[RhoU]|   rms[RhoV]|   rms[RhoE]|          CD|          CL|         CMz|   LinSolRes|
+--------------------------------------------------------------------------------------------------------------------+
|        4925|  -10.318520|   -9.928615|  -10.537790|  -10.506069|    0.007942|   -0.043163|    0.067982|   -0.638030|
|        4950|  -10.320340|   -9.935227|  -10.543343|  -10.512203|    0.007942|   -0.043159|    0.067983|   -0.637966|
|        4975|  -10.322222|   -9.941815|  -10.549182|  -10.519169|    0.007942|   -0.043156|    0.067984|   -0.636861|
[...]
|        5575|  -10.367022|  -10.101349|  -10.691721|  -10.670296|    0.007942|   -0.043086|    0.068004|   -0.644946|
|        5600|  -10.368970|  -10.108049|  -10.697893|  -10.677614|    0.007942|   -0.043084|    0.068005|   -0.644086|
+-----------------------------------------------------------------------+
|        File Writing Summary       |              Filename             |
+-----------------------------------------------------------------------+
|SU2 binary restart                 |restart.dat                        |
|Paraview                           |vol_solution.vtu                   |
|Paraview surface                   |surface.vtu                        |
+-----------------------------------------------------------------------+
+--------------------------------------------------------------------------------------------------------------------+
|  Inner_Iter|    rms[Rho]|   rms[RhoU]|   rms[RhoV]|   rms[RhoE]|          CD|          CL|         CMz|   LinSolRes|
+--------------------------------------------------------------------------------------------------------------------+
|        5625|  -10.370876|  -10.114766|  -10.704210|  -10.683918|    0.007942|   -0.043081|    0.068005|   -0.645222|
|        5650|  -10.372766|  -10.121506|  -10.710263|  -10.689745|    0.007942|   -0.043079|    0.068006|   -0.646522|
|        5675|  -10.374725|  -10.128222|  -10.716576|  -10.697182|    0.007942|   -0.043077|    0.068007|   -0.645701|
|        5700|  -10.376624|  -10.134969|  -10.722885|  -10.703086|    0.007942|   -0.043075|    0.068007|   -0.647504|
+-----------------------------------------------------------------------+
|        File Writing Summary       |              Filename             |
+-----------------------------------------------------------------------+
|SU2 binary restart                 |restart.dat                        |
|Paraview                           |vol_solution.vtu                   |
|Paraview surface                   |surface.vtu                        |
+-----------------------------------------------------------------------+
+--------------------------------------------------------------------------------------------------------------------+
|  Inner_Iter|    rms[Rho]|   rms[RhoU]|   rms[RhoV]|   rms[RhoE]|          CD|          CL|         CMz|   LinSolRes|
+--------------------------------------------------------------------------------------------------------------------+
|        5725|  -10.378543|  -10.141724|  -10.729006|  -10.709419|    0.007942|   -0.043072|    0.068008|   -0.648144|
|        5750|  -10.380504|  -10.148460|  -10.735430|  -10.716731|    0.007942|   -0.043070|    0.068008|   -0.647729|
|        5775|  -10.382404|  -10.155236|  -10.741704|  -10.722397|    0.007942|   -0.043068|    0.068009|   -0.649924|
|        5800|  -10.384353|  -10.162003|  -10.747925|  -10.729284|    0.007942|   -0.043066|    0.068010|   -0.649895|
+-----------------------------------------------------------------------+
|        File Writing Summary       |              Filename             |
+-----------------------------------------------------------------------+
|SU2 binary restart                 |restart.dat                        |
|Paraview                           |vol_solution.vtu                   |
|Paraview surface                   |surface.vtu                        |
+-----------------------------------------------------------------------+
+--------------------------------------------------------------------------------------------------------------------+
|  Inner_Iter|    rms[Rho]|   rms[RhoU]|   rms[RhoV]|   rms[RhoE]|          CD|          CL|         CMz|   LinSolRes|
+--------------------------------------------------------------------------------------------------------------------+
|        5825|  -10.386307|  -10.168763|  -10.754420|  -10.736245|    0.007942|   -0.043064|    0.068010|   -0.650187|
|        5850|  -10.388218|  -10.175563|  -10.760669|  -10.741918|    0.007942|   -0.043062|    0.068011|   -0.652389|
|        5875|  -10.390191|  -10.182337|  -10.767025|  -10.749271|    0.007942|   -0.043060|    0.068011|   -0.651892|
|        5900|  -10.392135|  -10.189122|  -10.773549|  -10.755734|    0.007942|   -0.043058|    0.068012|   -0.653019|
+-----------------------------------------------------------------------+
|        File Writing Summary       |              Filename             |
+-----------------------------------------------------------------------+
|SU2 binary restart                 |restart.dat                        |
|Paraview                           |vol_solution.vtu                   |
|Paraview surface                   |surface.vtu                        |
+-----------------------------------------------------------------------+
+--------------------------------------------------------------------------------------------------------------------+
|  Inner_Iter|    rms[Rho]|   rms[RhoU]|   rms[RhoV]|   rms[RhoE]|          CD|          CL|         CMz|   LinSolRes|
+--------------------------------------------------------------------------------------------------------------------+
|        5925|  -10.394064|  -10.195938|  -10.779795|  -10.761666|    0.007942|   -0.043056|    0.068013|   -0.654836|
|        5950|  -10.396052|  -10.202728|  -10.786269|  -10.769268|    0.007942|   -0.043054|    0.068013|   -0.654240|
|        5975|  -10.397990|  -10.209549|  -10.792755|  -10.775251|    0.007942|   -0.043052|    0.068014|   -0.656149|
|        6000|  -10.399944|  -10.216387|  -10.799029|  -10.781655|    0.007942|   -0.043050|    0.068014|   -0.657344|
+-----------------------------------------------------------------------+
|        File Writing Summary       |              Filename             |
+-----------------------------------------------------------------------+
|SU2 binary restart                 |restart.dat                        |
|Paraview                           |vol_solution.vtu                   |
|Paraview surface                   |surface.vtu                        |
+-----------------------------------------------------------------------+
+--------------------------------------------------------------------------------------------------------------------+
|  Inner_Iter|    rms[Rho]|   rms[RhoU]|   rms[RhoV]|   rms[RhoE]|          CD|          CL|         CMz|   LinSolRes|
+--------------------------------------------------------------------------------------------------------------------+
|        6025|  -10.401938|  -10.223201|  -10.805627|  -10.789243|    0.007942|   -0.043048|    0.068015|   -0.657082|
|        6050|  -10.403876|  -10.230051|  -10.812115|  -10.794905|    0.007942|   -0.043046|    0.068015|   -0.659493|
|        6075|  -10.405856|  -10.236893|  -10.818546|  -10.801855|    0.007942|   -0.043044|    0.068016|   -0.659993|
|        6100|  -10.407850|  -10.243722|  -10.825318|  -10.809178|    0.007942|   -0.043043|    0.068016|   -0.660424|
+-----------------------------------------------------------------------+
|        File Writing Summary       |              Filename             |
+-----------------------------------------------------------------------+
|SU2 binary restart                 |restart.dat                        |
|Paraview                           |vol_solution.vtu                   |
|Paraview surface                   |surface.vtu                        |
+-----------------------------------------------------------------------+
+--------------------------------------------------------------------------------------------------------------------+
|  Inner_Iter|    rms[Rho]|   rms[RhoU]|   rms[RhoV]|   rms[RhoE]|          CD|          CL|         CMz|   LinSolRes|
+--------------------------------------------------------------------------------------------------------------------+
|        6125|  -10.409797|  -10.250598|  -10.831860|  -10.814807|    0.007943|   -0.043041|    0.068017|   -0.662973|
|        6150|  -10.411800|  -10.257463|  -10.838455|  -10.822251|    0.007943|   -0.043039|    0.068017|   -0.662956|
|        6175|  -10.413788|  -10.264338|  -10.845252|  -10.829115|    0.007943|   -0.043037|    0.068018|   -0.664251|
|        6200|  -10.415751|  -10.271247|  -10.851741|  -10.834941|    0.007943|   -0.043036|    0.068018|   -0.666501|
+-----------------------------------------------------------------------+
|        File Writing Summary       |              Filename             |
+-----------------------------------------------------------------------+
|SU2 binary restart                 |restart.dat                        |
|Paraview                           |vol_solution.vtu                   |
|Paraview surface                   |surface.vtu                        |
+-----------------------------------------------------------------------+
+--------------------------------------------------------------------------------------------------------------------+
|  Inner_Iter|    rms[Rho]|   rms[RhoU]|   rms[RhoV]|   rms[RhoE]|          CD|          CL|         CMz|   LinSolRes|
+--------------------------------------------------------------------------------------------------------------------+
|        6225|  -10.417768|  -10.278129|  -10.858414|  -10.842632|    0.007943|   -0.043034|    0.068019|   -0.666264|
|        6250|  -10.419750|  -10.285034|  -10.865159|  -10.848987|    0.007943|   -0.043032|    0.068019|   -0.668359|
|        6275|  -10.421734|  -10.291959|  -10.871657|  -10.855238|    0.007943|   -0.043031|    0.068019|   -0.670018|
|        6300|  -10.423758|  -10.298858|  -10.878449|  -10.862943|    0.007943|   -0.043029|    0.068020|   -0.669975|
+-----------------------------------------------------------------------+
|        File Writing Summary       |              Filename             |
+-----------------------------------------------------------------------+
|SU2 binary restart                 |restart.dat                        |
|Paraview                           |vol_solution.vtu                   |
|Paraview surface                   |surface.vtu                        |
+-----------------------------------------------------------------------+
+--------------------------------------------------------------------------------------------------------------------+
|  Inner_Iter|    rms[Rho]|   rms[RhoU]|   rms[RhoV]|   rms[RhoE]|          CD|          CL|         CMz|   LinSolRes|
+--------------------------------------------------------------------------------------------------------------------+
|        6325|  -10.425741|  -10.305796|  -10.885179|  -10.868947|    0.007943|   -0.043028|    0.068020|   -0.672662|
|        6350|  -10.427748|  -10.312737|  -10.891786|  -10.875757|    0.007943|   -0.043026|    0.068021|   -0.673664|
|        6375|  -10.429773|  -10.319662|  -10.898709|  -10.883254|    0.007943|   -0.043025|    0.068021|   -0.674171|
|        6400|  -10.431764|  -10.326632|  -10.905450|  -10.889134|    0.007943|   -0.043023|    0.068022|   -0.677125|
+-----------------------------------------------------------------------+
|        File Writing Summary       |              Filename             |
+-----------------------------------------------------------------------+
|SU2 binary restart                 |restart.dat                        |
|Paraview                           |vol_solution.vtu                   |
|Paraview surface                   |surface.vtu                        |
+-----------------------------------------------------------------------+
+--------------------------------------------------------------------------------------------------------------------+
|  Inner_Iter|    rms[Rho]|   rms[RhoU]|   rms[RhoV]|   rms[RhoE]|          CD|          CL|         CMz|   LinSolRes|
+--------------------------------------------------------------------------------------------------------------------+
|        6425|  -10.433791|  -10.333588|  -10.912204|  -10.896476|    0.007943|   -0.043022|    0.068022|   -0.677587|
|        6450|  -10.435815|  -10.340545|  -10.919209|  -10.903594|    0.007943|   -0.043020|    0.068022|   -0.678840|
|        6475|  -10.437817|  -10.347545|  -10.925947|  -10.909578|    0.007943|   -0.043019|    0.068023|   -0.681712|
|        6500|  -10.439860|  -10.354521|  -10.932825|  -10.917301|    0.007943|   -0.043018|    0.068023|   -0.681880|
+-----------------------------------------------------------------------+
|        File Writing Summary       |              Filename             |
+-----------------------------------------------------------------------+
|SU2 binary restart                 |restart.dat                        |
|Paraview                           |vol_solution.vtu                   |
|Paraview surface                   |surface.vtu                        |
+-----------------------------------------------------------------------+
+--------------------------------------------------------------------------------------------------------------------+
|  Inner_Iter|    rms[Rho]|   rms[RhoU]|   rms[RhoV]|   rms[RhoE]|          CD|          CL|         CMz|   LinSolRes|
+--------------------------------------------------------------------------------------------------------------------+
|        6525|  -10.441883|  -10.361514|  -10.939838|  -10.923964|    0.007943|   -0.043016|    0.068023|   -0.683891|
|        6550|  -10.443901|  -10.368538|  -10.946580|  -10.930228|    0.007943|   -0.043015|    0.068024|   -0.686404|
|        6575|  -10.445954|  -10.375533|  -10.953574|  -10.938132|    0.007943|   -0.043014|    0.068024|   -0.686581|
|        6600|  -10.447978|  -10.382559|  -10.960581|  -10.944398|    0.007943|   -0.043012|    0.068024|   -0.689227|
+-----------------------------------------------------------------------+
|        File Writing Summary       |              Filename             |
+-----------------------------------------------------------------------+
|SU2 binary restart                 |restart.dat                        |
|Paraview                           |vol_solution.vtu                   |
|Paraview surface                   |surface.vtu                        |
+-----------------------------------------------------------------------+
+--------------------------------------------------------------------------------------------------------------------+
|  Inner_Iter|    rms[Rho]|   rms[RhoU]|   rms[RhoV]|   rms[RhoE]|          CD|          CL|         CMz|   LinSolRes|
+--------------------------------------------------------------------------------------------------------------------+
|        6625|  -10.450013|  -10.389603|  -10.967378|  -10.951054|    0.007943|   -0.043011|    0.068025|   -0.691250|
|        6650|  -10.452073|  -10.396622|  -10.974488|  -10.958952|    0.007943|   -0.043010|    0.068025|   -0.691713|
|        6675|  -10.454101|  -10.403682|  -10.981494|  -10.964952|    0.007943|   -0.043008|    0.068026|   -0.694797|
|        6700|  -10.456152|  -10.410746|  -10.988376|  -10.972024|    0.007943|   -0.043007|    0.068026|   -0.696333|
+-----------------------------------------------------------------------+
|        File Writing Summary       |              Filename             |
+-----------------------------------------------------------------------+
|SU2 binary restart                 |restart.dat                        |
|Paraview                           |vol_solution.vtu                   |
|Paraview surface                   |surface.vtu                        |
+-----------------------------------------------------------------------+
+--------------------------------------------------------------------------------------------------------------------+
|  Inner_Iter|    rms[Rho]|   rms[RhoU]|   rms[RhoV]|   rms[RhoE]|          CD|          CL|         CMz|   LinSolRes|
+--------------------------------------------------------------------------------------------------------------------+
|        6725|  -10.458217|  -10.417794|  -10.995580|  -10.979765|    0.007943|   -0.043006|    0.068026|   -0.697269|
|        6750|  -10.458716|  -10.424665|  -10.989222|  -10.897814|    0.007943|   -0.043005|    0.068026|   -0.686894|
|        6775|  -10.462742|  -10.432530|  -11.011191|  -10.994676|    0.007943|   -0.043004|    0.068027|   -0.701752|
|        6800|  -10.464251|  -10.439714|  -11.018558|  -10.999443|    0.007943|   -0.043003|    0.068027|   -0.704461|
+-----------------------------------------------------------------------+
|        File Writing Summary       |              Filename             |
+-----------------------------------------------------------------------+
|SU2 binary restart                 |restart.dat                        |
|Paraview                           |vol_solution.vtu                   |
|Paraview surface                   |surface.vtu                        |
+-----------------------------------------------------------------------+
+--------------------------------------------------------------------------------------------------------------------+
|  Inner_Iter|    rms[Rho]|   rms[RhoU]|   rms[RhoV]|   rms[RhoE]|          CD|          CL|         CMz|   LinSolRes|
+--------------------------------------------------------------------------------------------------------------------+
|        6825|  -10.466761|  -10.446716|  -11.024571|  -11.008228|    0.007943|   -0.043001|    0.068027|   -0.706845|
|        6850|  -10.468322|  -10.453984|  -11.030560|  -10.992977|    0.007943|   -0.043000|    0.068028|   -0.756922|
|        6875|  -10.471392|  -10.461319|  -11.040250|  -11.052939|    0.007943|   -0.042999|    0.068028|   -0.691043|
|        6900|  -10.473018|  -10.468589|  -11.046918|  -11.028884|    0.007943|   -0.042998|    0.068028|   -0.711740|
+-----------------------------------------------------------------------+
|        File Writing Summary       |              Filename             |
+-----------------------------------------------------------------------+
|SU2 binary restart                 |restart.dat                        |
|Paraview                           |vol_solution.vtu                   |
|Paraview surface                   |surface.vtu                        |
+-----------------------------------------------------------------------+

----------------------------- Solver Exit -------------------------------
All convergence criteria satisfied.
+-----------------------------------------------------------------------+
|      Convergence Field     |     Value    |   Criterion  |  Converged |
+-----------------------------------------------------------------------+
|                  Cauchy[CL]|   4.99914e-07|       < 5e-07|         Yes|
+-----------------------------------------------------------------------+
-------------------------------------------------------------------------
+-----------------------------------------------------------------------+
|        File Writing Summary       |              Filename             |
+-----------------------------------------------------------------------+
|SU2 binary restart                 |restart.dat                        |
|Paraview                           |vol_solution.vtu                   |
|Paraview surface                   |surface.vtu                        |
+-----------------------------------------------------------------------+

------------------------- Solver Postprocessing -------------------------
Deleted CNumerics container.
Deleted CIntegration container.
Deleted CSolver container.
Deleted CIteration container.
Deleted CInterface container.
Deleted CGeometry container.
Deleted CFreeFormDefBox class.
Deleted CSurfaceMovement class.
Deleted CVolumetricMovement class.
Deleted CConfig container.
Deleted nInst container.
Deleted COutput class.
-------------------------------------------------------------------------

------------------------- Exit Success (SU2_CFD) ------------------------

