WARNING: The current SST-1994m model is inconsistent with literature. We recommend using the SST-2003m model.
In SU2 v8 the 2003m model will become default, and the inconsistency will be fixed.
WARNING: The current SST-1994m model is inconsistent with literature. We recommend using the SST-2003m model.
In SU2 v8 the 2003m model will become default, and the inconsistency will be fixed.


-------------------------------------------------------------------------
-------------------------------------------------------------------------
|    ___ _   _ ___                                                      |
|    ___ _   _ ___                                                      |
|   / __| | | |_  )   Release 7.5.1 "Blackbird"                         |
|   / __| | | |_  )   Release 7.5.1 "Blackbird"                         |
|   \__ \ |_| |/ /                                                      |
|   \__ \ |_| |/ /                                                      |
|   |___/\___//___|   Suite (Computational Fluid Dynamics Code)         |
|   |___/\___//___|   Suite (Computational Fluid Dynamics Code)         |
|                                                                       |
|                                                                       |
-------------------------------------------------------------------------
-------------------------------------------------------------------------
| SU2 Project Website: https://su2code.github.io                        |
| SU2 Project Website: https://su2code.github.io                        |
|                                                                       |
|                                                                       |
| The SU2 Project is maintained by the SU2 Foundation                   |
| The SU2 Project is maintained by the SU2 Foundation                   |
| (http://su2foundation.org)                                            |
| (http://su2foundation.org)                                            |
-------------------------------------------------------------------------
-------------------------------------------------------------------------
| Copyright 2012-2023, SU2 Contributors                                 |
| Copyright 2012-2023, SU2 Contributors                                 |
|                                                                       |
|                                                                       |
| SU2 is free software; you can redistribute it and/or                  |
| SU2 is free software; you can redistribute it and/or                  |
| modify it under the terms of the GNU Lesser General Public            |
| modify it under the terms of the GNU Lesser General Public            |
| License as published by the Free Software Foundation; either          |
| version 2.1 of the License, or (at your option) any later version.    |
| License as published by the Free Software Foundation; either          |
|                                                                       |
| version 2.1 of the License, or (at your option) any later version.    |
| SU2 is distributed in the hope that it will be useful,                |
|                                                                       |
| but WITHOUT ANY WARRANTY; without even the implied warranty of        |
| SU2 is distributed in the hope that it will be useful,                |
| MERCHANTABILITY or FITNESS FOR A PARTICULAR PURPOSE. See the GNU      |
| but WITHOUT ANY WARRANTY; without even the implied warranty of        |
| Lesser General Public License for more details.                       |
| MERCHANTABILITY or FITNESS FOR A PARTICULAR PURPOSE. See the GNU      |
|                                                                       |
| Lesser General Public License for more details.                       |
| You should have received a copy of the GNU Lesser General Public      |
| License along with SU2. If not, see <http://www.gnu.org/licenses/>.   |
-------------------------------------------------------------------------
|                                                                       |
| You should have received a copy of the GNU Lesser General Public      |
| License along with SU2. If not, see <http://www.gnu.org/licenses/>.   |
-------------------------------------------------------------------------
WARNING: The current SST-1994m model is inconsistent with literature. We recommend using the SST-2003m model.
In SU2 v8 the 2003m model will become default, and the inconsistency will be fixed.
WARNING: The current SST-1994m model is inconsistent with literature. We recommend using the SST-2003m model.
In SU2 v8 the 2003m model will become default, and the inconsistency will be fixed.


Parsing config file for zone 0
Parsing config file for zone 0
WARNING: The current SST-1994m model is inconsistent with literature. We recommend using the SST-2003m model.
In SU2 v8 the 2003m model will become default, and the inconsistency will be fixed.

----------------- Physical Case Definition ( Zone 0 ) -------------------
Compressible RANS equations.
Turbulence model: Menter's k-omega SST-1994m with no production modification.
Hybrid RANS/LES: No Hybrid RANS/LES
WARNING: The current SST-1994m model is inconsistent with literature. We recommend using the SST-2003m model.
In SU2 v8 the 2003m model will become default, and the inconsistency will be fixed.
Mach number: 0.4.

Angle of attack (AoA): 0 deg, and angle of sideslip (AoS): 0 deg.
----------------- Physical Case Definition ( Zone 0 ) -------------------
Reynolds number: 2.44164e+07. Reference length 2.62.
Compressible RANS equations.
No restart solution, use the values at infinity (freestream).
Turbulence model: Menter's k-omega SST-1994m with no production modification.
Non-Dimensional simulation (V=Mach, Rho=1.0, T=1.0 at the farfield).
Hybrid RANS/LES: No Hybrid RANS/LES
The reference area is 2.62 m^2.
Mach number: 0.4.
The semi-span will be computed using the max y(3D) value.
Angle of attack (AoA): 0 deg, and angle of sideslip (AoS): 0 deg.
The reference length is 2.62 m.
Reynolds number: 2.44164e+07. Reference length 2.62.
Reference origin for moment evaluation is (1, 0, 0).
No restart solution, use the values at infinity (freestream).
Surface(s) where the force coefficients are evaluated: wall.
Non-Dimensional simulation (V=Mach, Rho=1.0, T=1.0 at the farfield).

The reference area is 2.62 m^2.
Surface(s) plotted in the output file: wall.
The semi-span will be computed using the max y(3D) value.
Input mesh file name: su2meshEx.su2
The reference length is 2.62 m.

Reference origin for moment evaluation is (1, 0, 0).
--------------- Space Numerical Integration ( Zone 0 ) ------------------
Surface(s) where the force coefficients are evaluated: wall.
Roe (with entropy fix = 1e-05) solver for the flow inviscid terms.

Standard Roe without low-dissipation function.
Surface(s) plotted in the output file: wall.
Second order integration in space, with slope limiter.
Van Albada slope-limiting method implemented by edges.
Input mesh file name: su2meshEx.su2
Scalar upwind solver for the turbulence model.

First order integration in space.
--------------- Space Numerical Integration ( Zone 0 ) ------------------
Average of gradients with correction (viscous flow terms).
Roe (with entropy fix = 1e-05) solver for the flow inviscid terms.
Average of gradients with correction (viscous turbulence terms).
Standard Roe without low-dissipation function.
Gradient for upwind reconstruction: Green-Gauss.
Second order integration in space, with slope limiter.
Van Albada slope-limiting method implemented by edges.
Gradient for viscous and source terms: Green-Gauss.
Scalar upwind solver for the turbulence model.

First order integration in space.
--------------- Time Numerical Integration  ( Zone 0 ) ------------------
Average of gradients with correction (viscous flow terms).
Local time stepping (steady state simulation).
Average of gradients with correction (viscous turbulence terms).
Euler implicit method for the flow equations.
Gradient for upwind reconstruction: Green-Gauss.
FGMRES is used for solving the linear system.
Gradient for viscous and source terms: Green-Gauss.
Using a ILU(0) preconditioning.

Convergence criteria of the linear solver: 0.2.
--------------- Time Numerical Integration  ( Zone 0 ) ------------------
Max number of linear iterations: 4.
Local time stepping (steady state simulation).
CFL adaptation. Factor down: 0.1, factor up: 1.2,
                lower limit: 25, upper limit: 1000,
                acceptable linear residual: 0.001.
Euler implicit method for the flow equations.
Courant-Friedrichs-Lewy number:       25
FGMRES is used for solving the linear system.
Euler implicit time integration for the turbulence model.
Using a ILU(0) preconditioning.

Convergence criteria of the linear solver: 0.2.
------------------ Convergence Criteria  ( Zone 0 ) ---------------------
Max number of linear iterations: 4.
Maximum number of solver subiterations: 500.
CFL adaptation. Factor down: 0.1, factor up: 1.2,
                lower limit: 25, upper limit: 1000,
                acceptable linear residual: 0.001.
Begin convergence monitoring at iteration 10.
Courant-Friedrichs-Lewy number:       25
Residual minimum value: 1e-11.5.
Euler implicit time integration for the turbulence model.
Cauchy series min. value: 5e-07.

------------------ Convergence Criteria  ( Zone 0 ) ---------------------
Maximum number of solver subiterations: 500.
Begin convergence monitoring at iteration 10.
Residual minimum value: 1e-11.5.
Cauchy series min. value: 5e-07.
Number of Cauchy elements: 500.
Begin windowed time average at iteration 0.

-------------------- Output Information ( Zone 0 ) ----------------------
File writing frequency: 
Number of Cauchy elements: 500.
+------------------------------------+
|                     File| Frequency|
+------------------------------------+
|                  RESTART|       300|
|                 PARAVIEW|       300|
|         SURFACE_PARAVIEW|       300|
+------------------------------------+
Writing the convergence history file every 1 inner iterations.
Begin windowed time average at iteration 0.
Writing the screen convergence history every 25 inner iterations.

The tabular file format is CSV (.csv).
-------------------- Output Information ( Zone 0 ) ----------------------
Convergence history file name: history.
File writing frequency: 
+------------------------------------+
|                     File| Frequency|
+------------------------------------+
|                  RESTART|       300|
|                 PARAVIEW|       300|
|         SURFACE_PARAVIEW|       300|
+------------------------------------+
Writing the convergence history file every 1 inner iterations.
Forces breakdown file name: forces_breakdown.dat.
Writing the screen convergence history every 25 inner iterations.
Surface file name: surface.
The tabular file format is CSV (.csv).
Volume file name: vol_solution.
Convergence history file name: history.
Restart file name: restart.dat.
Forces breakdown file name: forces_breakdown.dat.

Surface file name: surface.
------------- Config File Boundary Information ( Zone 0 ) ---------------
Volume file name: vol_solution.
Restart file name: restart.dat.

------------- Config File Boundary Information ( Zone 0 ) ---------------
+-----------------------------------------------------------------------+
|                        Marker Type|                        Marker Name|
+-----------------------------------------------------------------------+
|                          Far-field|                          far-field|
+-----------------------------------------------------------------------+
|                     Heat flux wall|                               wall|
+-----------------------------------------------------------------------+

-------------------- Output Preprocessing ( Zone 0 ) --------------------
+-----------------------------------------------------------------------+
|                        Marker Type|                        Marker Name|
+-----------------------------------------------------------------------+
|                          Far-field|                          far-field|
+-----------------------------------------------------------------------+
|                     Heat flux wall|                               wall|
+-----------------------------------------------------------------------+

-------------------- Output Preprocessing ( Zone 0 ) --------------------

WARNING: SURFACE_PRESSURE_DROP can only be computed for at least 2 surfaces (outlet, inlet, ...)

  Info: Ignoring the following screen output fields:
  RMS_NU_TILDE
Screen output fields: INNER_ITER, RMS_DENSITY, RMS_MOMENTUM-X, RMS_MOMENTUM-Y, RMS_ENERGY, DRAG, LIFT, MOMENT_Z, LINSOL_RESIDUAL
History output group(s): ITER, RMS_RES, AERO_COEFF

WARNING: SURFACE_PRESSURE_DROP can only be computed for at least 2 surfaces (outlet, inlet, ...)

Convergence field(s): LIFT
Warning: No (valid) fields chosen for time convergence monitoring. Time convergence monitoring inactive.
  Info: Ignoring the following screen output fields:
  RMS_NU_TILDE
Screen output fields: INNER_ITER, RMS_DENSITY, RMS_MOMENTUM-X, RMS_MOMENTUM-Y, RMS_ENERGY, DRAG, LIFT, MOMENT_Z, LINSOL_RESIDUAL
History output group(s): ITER, RMS_RES, AERO_COEFF
Convergence field(s): LIFT
Warning: No (valid) fields chosen for time convergence monitoring. Time convergence monitoring inactive.
Volume output fields: COORDINATES, SOLUTION, PRIMITIVE

------------------- Geometry Preprocessing ( Zone 0 ) -------------------
Volume output fields: COORDINATES, SOLUTION, PRIMITIVE

------------------- Geometry Preprocessing ( Zone 0 ) -------------------
WARNING: The current SST-1994m model is inconsistent with literature. We recommend using the SST-2003m model.
In SU2 v8 the 2003m model will become default, and the inconsistency will be fixed.

-------------------------------------------------------------------------
|    ___ _   _ ___                                                      |
|   / __| | | |_  )   Release 7.5.1 "Blackbird"                         |
|   \__ \ |_| |/ /                                                      |
|   |___/\___//___|   Suite (Computational Fluid Dynamics Code)         |
|                                                                       |
-------------------------------------------------------------------------
| SU2 Project Website: https://su2code.github.io                        |
|                                                                       |
| The SU2 Project is maintained by the SU2 Foundation                   |
| (http://su2foundation.org)                                            |
-------------------------------------------------------------------------
| Copyright 2012-2023, SU2 Contributors                                 |
|                                                                       |
| SU2 is free software; you can redistribute it and/or                  |
| modify it under the terms of the GNU Lesser General Public            |
| License as published by the Free Software Foundation; either          |
| version 2.1 of the License, or (at your option) any later version.    |
|                                                                       |
| SU2 is distributed in the hope that it will be useful,                |
| but WITHOUT ANY WARRANTY; without even the implied warranty of        |
| MERCHANTABILITY or FITNESS FOR A PARTICULAR PURPOSE. See the GNU      |
| Lesser General Public License for more details.                       |
|                                                                       |
| You should have received a copy of the GNU Lesser General Public      |
| License along with SU2. If not, see <http://www.gnu.org/licenses/>.   |
-------------------------------------------------------------------------
WARNING: The current SST-1994m model is inconsistent with literature. We recommend using the SST-2003m model.
In SU2 v8 the 2003m model will become default, and the inconsistency will be fixed.

-------------------------------------------------------------------------
|    ___ _   _ ___                                                      |
|   / __| | | |_  )   Release 7.5.1 "Blackbird"                         |
|   \__ \ |_| |/ /                                                      |
|   |___/\___//___|   Suite (Computational Fluid Dynamics Code)         |
|                                                                       |
-------------------------------------------------------------------------
| SU2 Project Website: https://su2code.github.io                        |
|                                                                       |
| The SU2 Project is maintained by the SU2 Foundation                   |
| (http://su2foundation.org)                                            |
-------------------------------------------------------------------------
| Copyright 2012-2023, SU2 Contributors                                 |
|                                                                       |
| SU2 is free software; you can redistribute it and/or                  |
| modify it under the terms of the GNU Lesser General Public            |
| License as published by the Free Software Foundation; either          |
| version 2.1 of the License, or (at your option) any later version.    |
|                                                                       |
| SU2 is distributed in the hope that it will be useful,                |
| but WITHOUT ANY WARRANTY; without even the implied warranty of        |
| MERCHANTABILITY or FITNESS FOR A PARTICULAR PURPOSE. See the GNU      |
| Lesser General Public License for more details.                       |
|                                                                       |
| You should have received a copy of the GNU Lesser General Public      |
| License along with SU2. If not, see <http://www.gnu.org/licenses/>.   |
-------------------------------------------------------------------------
WARNING: The current SST-1994m model is inconsistent with literature. We recommend using the SST-2003m model.
In SU2 v8 the 2003m model will become default, and the inconsistency will be fixed.

Parsing config file for zone 0
WARNING: The current SST-1994m model is inconsistent with literature. We recommend using the SST-2003m model.
In SU2 v8 the 2003m model will become default, and the inconsistency will be fixed.

WARNING: The current SST-1994m model is inconsistent with literature. We recommend using the SST-2003m model.
In SU2 v8 the 2003m model will become default, and the inconsistency will be fixed.

----------------- Physical Case Definition ( Zone 0 ) -------------------
Parsing config file for zone 0
Compressible RANS equations.
Turbulence model: Menter's k-omega SST-1994m with no production modification.
Hybrid RANS/LES: No Hybrid RANS/LES
Mach number: 0.4.
Angle of attack (AoA): 0 deg, and angle of sideslip (AoS): 0 deg.
Reynolds number: 2.44164e+07. Reference length 2.62.
No restart solution, use the values at infinity (freestream).
Non-Dimensional simulation (V=Mach, Rho=1.0, T=1.0 at the farfield).
The reference area is 2.62 m^2.
The semi-span will be computed using the max y(3D) value.
The reference length is 2.62 m.
Reference origin for moment evaluation is (1, 0, 0).
Surface(s) where the force coefficients are evaluated: wall.

Surface(s) plotted in the output file: wall.
Input mesh file name: su2meshEx.su2

--------------- Space Numerical Integration ( Zone 0 ) ------------------
Roe (with entropy fix = 1e-05) solver for the flow inviscid terms.
Standard Roe without low-dissipation function.
Second order integration in space, with slope limiter.
Van Albada slope-limiting method implemented by edges.
Scalar upwind solver for the turbulence model.
First order integration in space.
Average of gradients with correction (viscous flow terms).
Average of gradients with correction (viscous turbulence terms).
Gradient for upwind reconstruction: Green-Gauss.
Gradient for viscous and source terms: Green-Gauss.

--------------- Time Numerical Integration  ( Zone 0 ) ------------------
Local time stepping (steady state simulation).
Euler implicit method for the flow equations.
FGMRES is used for solving the linear system.
Using a ILU(0) preconditioning.
Convergence criteria of the linear solver: 0.2.
Max number of linear iterations: 4.
CFL adaptation. Factor down: 0.1, factor up: 1.2,
                lower limit: 25, upper limit: 1000,
                acceptable linear residual: 0.001.
Courant-Friedrichs-Lewy number:       25
Euler implicit time integration for the turbulence model.

------------------ Convergence Criteria  ( Zone 0 ) ---------------------
Maximum number of solver subiterations: 500.
Begin convergence monitoring at iteration 10.
Residual minimum value: 1e-11.5.
Cauchy series min. value: 5e-07.
Number of Cauchy elements: 500.
Begin windowed time average at iteration 0.

-------------------- Output Information ( Zone 0 ) ----------------------
File writing frequency: 
+------------------------------------+
|                     File| Frequency|
+------------------------------------+
|                  RESTART|       300|
|                 PARAVIEW|       300|
|         SURFACE_PARAVIEW|       300|
+------------------------------------+
Writing the convergence history file every 1 inner iterations.
Writing the screen convergence history every 25 inner iterations.
The tabular file format is CSV (.csv).
Convergence history file name: history.
Forces breakdown file name: forces_breakdown.dat.
Surface file name: surface.
Volume file name: vol_solution.
Restart file name: restart.dat.

------------- Config File Boundary Information ( Zone 0 ) ---------------
+-----------------------------------------------------------------------+
|                        Marker Type|                        Marker Name|
+-----------------------------------------------------------------------+
|                          Far-field|                          far-field|
+-----------------------------------------------------------------------+
|                     Heat flux wall|                               wall|
+-----------------------------------------------------------------------+

-------------------- Output Preprocessing ( Zone 0 ) --------------------

WARNING: SURFACE_PRESSURE_DROP can only be computed for at least 2 surfaces (outlet, inlet, ...)

  Info: Ignoring the following screen output fields:
  RMS_NU_TILDE
Screen output fields: INNER_ITER, RMS_DENSITY, RMS_MOMENTUM-X, RMS_MOMENTUM-Y, RMS_ENERGY, DRAG, LIFT, MOMENT_Z, LINSOL_RESIDUAL
History output group(s): ITER, RMS_RES, AERO_COEFF
Convergence field(s): LIFT
Warning: No (valid) fields chosen for time convergence monitoring. Time convergence monitoring inactive.
Volume output fields: COORDINATES, SOLUTION, PRIMITIVE

------------------- Geometry Preprocessing ( Zone 0 ) -------------------
WARNING: The current SST-1994m model is inconsistent with literature. We recommend using the SST-2003m model.
In SU2 v8 the 2003m model will become default, and the inconsistency will be fixed.

----------------- Physical Case Definition ( Zone 0 ) -------------------
Compressible RANS equations.
Turbulence model: Menter's k-omega SST-1994m with no production modification.
Hybrid RANS/LES: No Hybrid RANS/LES
Mach number: 0.4.
Angle of attack (AoA): 0 deg, and angle of sideslip (AoS): 0 deg.
Reynolds number: 2.44164e+07. Reference length 2.62.
No restart solution, use the values at infinity (freestream).
Non-Dimensional simulation (V=Mach, Rho=1.0, T=1.0 at the farfield).
The reference area is 2.62 m^2.
The semi-span will be computed using the max y(3D) value.
The reference length is 2.62 m.
Reference origin for moment evaluation is (1, 0, 0).
Surface(s) where the force coefficients are evaluated: wall.

Surface(s) plotted in the output file: wall.
Input mesh file name: su2meshEx.su2

--------------- Space Numerical Integration ( Zone 0 ) ------------------
Roe (with entropy fix = 1e-05) solver for the flow inviscid terms.
Standard Roe without low-dissipation function.
Second order integration in space, with slope limiter.
Van Albada slope-limiting method implemented by edges.
Scalar upwind solver for the turbulence model.
First order integration in space.
Average of gradients with correction (viscous flow terms).
Average of gradients with correction (viscous turbulence terms).
Gradient for upwind reconstruction: Green-Gauss.
Gradient for viscous and source terms: Green-Gauss.

--------------- Time Numerical Integration  ( Zone 0 ) ------------------
Local time stepping (steady state simulation).
Euler implicit method for the flow equations.
FGMRES is used for solving the linear system.
Using a ILU(0) preconditioning.
Convergence criteria of the linear solver: 0.2.
Max number of linear iterations: 4.
CFL adaptation. Factor down: 0.1, factor up: 1.2,
                lower limit: 25, upper limit: 1000,
                acceptable linear residual: 0.001.
Courant-Friedrichs-Lewy number:       25
Euler implicit time integration for the turbulence model.

------------------ Convergence Criteria  ( Zone 0 ) ---------------------
Maximum number of solver subiterations: 500.
Begin convergence monitoring at iteration 10.
Residual minimum value: 1e-11.5.
Cauchy series min. value: 5e-07.
Number of Cauchy elements: 500.
Begin windowed time average at iteration 0.

-------------------- Output Information ( Zone 0 ) ----------------------
File writing frequency: 
+------------------------------------+
|                     File| Frequency|
+------------------------------------+
|                  RESTART|       300|
|                 PARAVIEW|       300|
|         SURFACE_PARAVIEW|       300|
+------------------------------------+
Writing the convergence history file every 1 inner iterations.
Writing the screen convergence history every 25 inner iterations.
The tabular file format is CSV (.csv).
Convergence history file name: history.
Forces breakdown file name: forces_breakdown.dat.
Surface file name: surface.
Volume file name: vol_solution.
Restart file name: restart.dat.

------------- Config File Boundary Information ( Zone 0 ) ---------------
+-----------------------------------------------------------------------+
|                        Marker Type|                        Marker Name|
+-----------------------------------------------------------------------+
|                          Far-field|                          far-field|
+-----------------------------------------------------------------------+
|                     Heat flux wall|                               wall|
+-----------------------------------------------------------------------+

-------------------- Output Preprocessing ( Zone 0 ) --------------------

WARNING: SURFACE_PRESSURE_DROP can only be computed for at least 2 surfaces (outlet, inlet, ...)

  Info: Ignoring the following screen output fields:
  RMS_NU_TILDE
Screen output fields: INNER_ITER, RMS_DENSITY, RMS_MOMENTUM-X, RMS_MOMENTUM-Y, RMS_ENERGY, DRAG, LIFT, MOMENT_Z, LINSOL_RESIDUAL
History output group(s): ITER, RMS_RES, AERO_COEFF
Convergence field(s): LIFT
Warning: No (valid) fields chosen for time convergence monitoring. Time convergence monitoring inactive.
Volume output fields: COORDINATES, SOLUTION, PRIMITIVE

------------------- Geometry Preprocessing ( Zone 0 ) -------------------
WARNING: The current SST-1994m model is inconsistent with literature. We recommend using the SST-2003m model.
In SU2 v8 the 2003m model will become default, and the inconsistency will be fixed.

-------------------------------------------------------------------------
|    ___ _   _ ___                                                      |
|   / __| | | |_  )   Release 7.5.1 "Blackbird"                         |
|   \__ \ |_| |/ /                                                      |
|   |___/\___//___|   Suite (Computational Fluid Dynamics Code)         |
|                                                                       |
-------------------------------------------------------------------------
| SU2 Project Website: https://su2code.github.io                        |
|                                                                       |
| The SU2 Project is maintained by the SU2 Foundation                   |
| (http://su2foundation.org)                                            |
-------------------------------------------------------------------------
| Copyright 2012-2023, SU2 Contributors                                 |
|                                                                       |
| SU2 is free software; you can redistribute it and/or                  |
| modify it under the terms of the GNU Lesser General Public            |
| License as published by the Free Software Foundation; either          |
| version 2.1 of the License, or (at your option) any later version.    |
|                                                                       |
| SU2 is distributed in the hope that it will be useful,                |
| but WITHOUT ANY WARRANTY; without even the implied warranty of        |
| MERCHANTABILITY or FITNESS FOR A PARTICULAR PURPOSE. See the GNU      |
| Lesser General Public License for more details.                       |
|                                                                       |
| You should have received a copy of the GNU Lesser General Public      |
| License along with SU2. If not, see <http://www.gnu.org/licenses/>.   |
-------------------------------------------------------------------------
WARNING: The current SST-1994m model is inconsistent with literature. We recommend using the SST-2003m model.
In SU2 v8 the 2003m model will become default, and the inconsistency will be fixed.

Parsing config file for zone 0
WARNING: The current SST-1994m model is inconsistent with literature. We recommend using the SST-2003m model.
In SU2 v8 the 2003m model will become default, and the inconsistency will be fixed.
WARNING: The current SST-1994m model is inconsistent with literature. We recommend using the SST-2003m model.
In SU2 v8 the 2003m model will become default, and the inconsistency will be fixed.


-------------------------------------------------------------------------
----------------- Physical Case Definition ( Zone 0 ) -------------------
|    ___ _   _ ___                                                      |
Compressible RANS equations.
|   / __| | | |_  )   Release 7.5.1 "Blackbird"                         |
Turbulence model: Menter's k-omega SST-1994m with no production modification.
|   \__ \ |_| |/ /                                                      |
Hybrid RANS/LES: No Hybrid RANS/LES
|   |___/\___//___|   Suite (Computational Fluid Dynamics Code)         |
|                                                                       |
Mach number: 0.4.
-------------------------------------------------------------------------
Angle of attack (AoA): 0 deg, and angle of sideslip (AoS): 0 deg.
| SU2 Project Website: https://su2code.github.io                        |
Reynolds number: 2.44164e+07. Reference length 2.62.
|                                                                       |
No restart solution, use the values at infinity (freestream).
| The SU2 Project is maintained by the SU2 Foundation                   |
Non-Dimensional simulation (V=Mach, Rho=1.0, T=1.0 at the farfield).
| (http://su2foundation.org)                                            |
The reference area is 2.62 m^2.
-------------------------------------------------------------------------
The semi-span will be computed using the max y(3D) value.
| Copyright 2012-2023, SU2 Contributors                                 |
The reference length is 2.62 m.
|                                                                       |
Reference origin for moment evaluation is (1, 0, 0).
| SU2 is free software; you can redistribute it and/or                  |
Surface(s) where the force coefficients are evaluated: wall.
| modify it under the terms of the GNU Lesser General Public            |

| License as published by the Free Software Foundation; either          |
Surface(s) plotted in the output file: wall.
| version 2.1 of the License, or (at your option) any later version.    |
|                                                                       |
| SU2 is distributed in the hope that it will be useful,                |
Input mesh file name: su2meshEx.su2
| but WITHOUT ANY WARRANTY; without even the implied warranty of        |

| MERCHANTABILITY or FITNESS FOR A PARTICULAR PURPOSE. See the GNU      |
| Lesser General Public License for more details.                       |
--------------- Space Numerical Integration ( Zone 0 ) ------------------
|                                                                       |
Roe (with entropy fix = 1e-05) solver for the flow inviscid terms.
| You should have received a copy of the GNU Lesser General Public      |
Standard Roe without low-dissipation function.
| License along with SU2. If not, see <http://www.gnu.org/licenses/>.   |
Second order integration in space, with slope limiter.
Van Albada slope-limiting method implemented by edges.
-------------------------------------------------------------------------
Scalar upwind solver for the turbulence model.
First order integration in space.
Average of gradients with correction (viscous flow terms).
Average of gradients with correction (viscous turbulence terms).
Gradient for upwind reconstruction: Green-Gauss.
Gradient for viscous and source terms: Green-Gauss.

--------------- Time Numerical Integration  ( Zone 0 ) ------------------
Local time stepping (steady state simulation).
Euler implicit method for the flow equations.
FGMRES is used for solving the linear system.
Using a ILU(0) preconditioning.
Convergence criteria of the linear solver: 0.2.
Max number of linear iterations: 4.
CFL adaptation. Factor down: 0.1, factor up: 1.2,
                lower limit: 25, upper limit: 1000,
                acceptable linear residual: 0.001.
Courant-Friedrichs-Lewy number:       25
Euler implicit time integration for the turbulence model.

------------------ Convergence Criteria  ( Zone 0 ) ---------------------
Maximum number of solver subiterations: 500.
Begin convergence monitoring at iteration 10.
Residual minimum value: 1e-11.5.
Cauchy series min. value: 5e-07.
Number of Cauchy elements: 500.
Begin windowed time average at iteration 0.

-------------------- Output Information ( Zone 0 ) ----------------------
File writing frequency: 
+------------------------------------+
|                     File| Frequency|
+------------------------------------+
|                  RESTART|       300|
|                 PARAVIEW|       300|
|         SURFACE_PARAVIEW|       300|
+------------------------------------+
Writing the convergence history file every 1 inner iterations.
Writing the screen convergence history every 25 inner iterations.
The tabular file format is CSV (.csv).
Convergence history file name: history.
Forces breakdown file name: forces_breakdown.dat.
Surface file name: surface.
Volume file name: vol_solution.
Restart file name: restart.dat.

------------- Config File Boundary Information ( Zone 0 ) ---------------
+-----------------------------------------------------------------------+
|                        Marker Type|                        Marker Name|
+-----------------------------------------------------------------------+
|                          Far-field|                          far-field|
+-----------------------------------------------------------------------+
|                     Heat flux wall|                               wall|
+-----------------------------------------------------------------------+

-------------------- Output Preprocessing ( Zone 0 ) --------------------

WARNING: SURFACE_PRESSURE_DROP can only be computed for at least 2 surfaces (outlet, inlet, ...)

  Info: Ignoring the following screen output fields:
  RMS_NU_TILDE
Screen output fields: INNER_ITER, RMS_DENSITY, RMS_MOMENTUM-X, RMS_MOMENTUM-Y, RMS_ENERGY, DRAG, LIFT, MOMENT_Z, LINSOL_RESIDUAL
History output group(s): ITER, RMS_RES, AERO_COEFF
Convergence field(s): LIFT
Warning: No (valid) fields chosen for time convergence monitoring. Time convergence monitoring inactive.
WARNING: The current SST-1994m model is inconsistent with literature. We recommend using the SST-2003m model.
In SU2 v8 the 2003m model will become default, and the inconsistency will be fixed.

Parsing config file for zone 0
Volume output fields: COORDINATES, SOLUTION, PRIMITIVE

------------------- Geometry Preprocessing ( Zone 0 ) -------------------
WARNING: The current SST-1994m model is inconsistent with literature. We recommend using the SST-2003m model.
In SU2 v8 the 2003m model will become default, and the inconsistency will be fixed.

----------------- Physical Case Definition ( Zone 0 ) -------------------
Compressible RANS equations.
Turbulence model: Menter's k-omega SST-1994m with no production modification.
Hybrid RANS/LES: No Hybrid RANS/LES
Mach number: 0.4.
Angle of attack (AoA): 0 deg, and angle of sideslip (AoS): 0 deg.
Reynolds number: 2.44164e+07. Reference length 2.62.
No restart solution, use the values at infinity (freestream).
Non-Dimensional simulation (V=Mach, Rho=1.0, T=1.0 at the farfield).
The reference area is 2.62 m^2.
The semi-span will be computed using the max y(3D) value.
The reference length is 2.62 m.
Reference origin for moment evaluation is (1, 0, 0).
Surface(s) where the force coefficients are evaluated: wall.

Surface(s) plotted in the output file: wall.
Input mesh file name: su2meshEx.su2

--------------- Space Numerical Integration ( Zone 0 ) ------------------
Roe (with entropy fix = 1e-05) solver for the flow inviscid terms.
Standard Roe without low-dissipation function.
Second order integration in space, with slope limiter.
Van Albada slope-limiting method implemented by edges.
Scalar upwind solver for the turbulence model.
First order integration in space.
Average of gradients with correction (viscous flow terms).
Average of gradients with correction (viscous turbulence terms).
Gradient for upwind reconstruction: Green-Gauss.
Gradient for viscous and source terms: Green-Gauss.

--------------- Time Numerical Integration  ( Zone 0 ) ------------------
Local time stepping (steady state simulation).
Euler implicit method for the flow equations.
FGMRES is used for solving the linear system.
Using a ILU(0) preconditioning.
Convergence criteria of the linear solver: 0.2.
Max number of linear iterations: 4.
CFL adaptation. Factor down: 0.1, factor up: 1.2,
                lower limit: 25, upper limit: 1000,
                acceptable linear residual: 0.001.
Courant-Friedrichs-Lewy number:       25
Euler implicit time integration for the turbulence model.

------------------ Convergence Criteria  ( Zone 0 ) ---------------------
Maximum number of solver subiterations: 500.
Begin convergence monitoring at iteration 10.
Residual minimum value: 1e-11.5.
Cauchy series min. value: 5e-07.
Number of Cauchy elements: 500.
Begin windowed time average at iteration 0.

-------------------- Output Information ( Zone 0 ) ----------------------
File writing frequency: 
+------------------------------------+
|                     File| Frequency|
+------------------------------------+
|                  RESTART|       300|
|                 PARAVIEW|       300|
|         SURFACE_PARAVIEW|       300|
+------------------------------------+
Writing the convergence history file every 1 inner iterations.
Writing the screen convergence history every 25 inner iterations.
The tabular file format is CSV (.csv).
Convergence history file name: history.
Forces breakdown file name: forces_breakdown.dat.
Surface file name: surface.
Volume file name: vol_solution.
Restart file name: restart.dat.

------------- Config File Boundary Information ( Zone 0 ) ---------------
+-----------------------------------------------------------------------+
|                        Marker Type|                        Marker Name|
+-----------------------------------------------------------------------+
|                          Far-field|                          far-field|
+-----------------------------------------------------------------------+
|                     Heat flux wall|                               wall|
+-----------------------------------------------------------------------+

-------------------- Output Preprocessing ( Zone 0 ) --------------------

WARNING: SURFACE_PRESSURE_DROP can only be computed for at least 2 surfaces (outlet, inlet, ...)

  Info: Ignoring the following screen output fields:
  RMS_NU_TILDE
Screen output fields: INNER_ITER, RMS_DENSITY, RMS_MOMENTUM-X, RMS_MOMENTUM-Y, RMS_ENERGY, DRAG, LIFT, MOMENT_Z, LINSOL_RESIDUAL
History output group(s): ITER, RMS_RES, AERO_COEFF
Convergence field(s): LIFT
Warning: No (valid) fields chosen for time convergence monitoring. Time convergence monitoring inactive.
Volume output fields: COORDINATES, SOLUTION, PRIMITIVE

------------------- Geometry Preprocessing ( Zone 0 ) -------------------
WARNING: The current SST-1994m model is inconsistent with literature. We recommend using the SST-2003m model.
In SU2 v8 the 2003m model will become default, and the inconsistency will be fixed.

-------------------------------------------------------------------------
|    ___ _   _ ___                                                      |
|   / __| | | |_  )   Release 7.5.1 "Blackbird"                         |
|   \__ \ |_| |/ /                                                      |
|   |___/\___//___|   Suite (Computational Fluid Dynamics Code)         |
|                                                                       |
-------------------------------------------------------------------------
| SU2 Project Website: https://su2code.github.io                        |
|                                                                       |
| The SU2 Project is maintained by the SU2 Foundation                   |
| (http://su2foundation.org)                                            |
-------------------------------------------------------------------------
| Copyright 2012-2023, SU2 Contributors                                 |
|                                                                       |
| SU2 is free software; you can redistribute it and/or                  |
| modify it under the terms of the GNU Lesser General Public            |
| License as published by the Free Software Foundation; either          |
| version 2.1 of the License, or (at your option) any later version.    |
|                                                                       |
| SU2 is distributed in the hope that it will be useful,                |
| but WITHOUT ANY WARRANTY; without even the implied warranty of        |
| MERCHANTABILITY or FITNESS FOR A PARTICULAR PURPOSE. See the GNU      |
| Lesser General Public License for more details.                       |
|                                                                       |
| You should have received a copy of the GNU Lesser General Public      |
| License along with SU2. If not, see <http://www.gnu.org/licenses/>.   |
-------------------------------------------------------------------------
WARNING: The current SST-1994m model is inconsistent with literature. We recommend using the SST-2003m model.
In SU2 v8 the 2003m model will become default, and the inconsistency will be fixed.

Parsing config file for zone 0
WARNING: The current SST-1994m model is inconsistent with literature. We recommend using the SST-2003m model.
In SU2 v8 the 2003m model will become default, and the inconsistency will be fixed.

----------------- Physical Case Definition ( Zone 0 ) -------------------
Compressible RANS equations.
Turbulence model: Menter's k-omega SST-1994m with no production modification.
Hybrid RANS/LES: No Hybrid RANS/LES
Mach number: 0.4.
Angle of attack (AoA): 0 deg, and angle of sideslip (AoS): 0 deg.
Reynolds number: 2.44164e+07. Reference length 2.62.
No restart solution, use the values at infinity (freestream).
Non-Dimensional simulation (V=Mach, Rho=1.0, T=1.0 at the farfield).
The reference area is 2.62 m^2.
The semi-span will be computed using the max y(3D) value.
The reference length is 2.62 m.
Reference origin for moment evaluation is (1, 0, 0).
Surface(s) where the force coefficients are evaluated: wall.

Surface(s) plotted in the output file: wall.
Input mesh file name: su2meshEx.su2

--------------- Space Numerical Integration ( Zone 0 ) ------------------
Roe (with entropy fix = 1e-05) solver for the flow inviscid terms.
Standard Roe without low-dissipation function.
Second order integration in space, with slope limiter.
Van Albada slope-limiting method implemented by edges.
Scalar upwind solver for the turbulence model.
First order integration in space.
Average of gradients with correction (viscous flow terms).
Average of gradients with correction (viscous turbulence terms).
Gradient for upwind reconstruction: Green-Gauss.
Gradient for viscous and source terms: Green-Gauss.

--------------- Time Numerical Integration  ( Zone 0 ) ------------------
Local time stepping (steady state simulation).
Euler implicit method for the flow equations.
FGMRES is used for solving the linear system.
Using a ILU(0) preconditioning.
Convergence criteria of the linear solver: 0.2.
Max number of linear iterations: 4.
CFL adaptation. Factor down: 0.1, factor up: 1.2,
                lower limit: 25, upper limit: 1000,
                acceptable linear residual: 0.001.
Courant-Friedrichs-Lewy number:       25
Euler implicit time integration for the turbulence model.

------------------ Convergence Criteria  ( Zone 0 ) ---------------------
Maximum number of solver subiterations: 500.
Begin convergence monitoring at iteration 10.
Residual minimum value: 1e-11.5.
Cauchy series min. value: 5e-07.
Number of Cauchy elements: 500.
Begin windowed time average at iteration 0.

-------------------- Output Information ( Zone 0 ) ----------------------
File writing frequency: 
+------------------------------------+
|                     File| Frequency|
+------------------------------------+
|                  RESTART|       300|
|                 PARAVIEW|       300|
|         SURFACE_PARAVIEW|       300|
+------------------------------------+
Writing the convergence history file every 1 inner iterations.
Writing the screen convergence history every 25 inner iterations.
The tabular file format is CSV (.csv).
Convergence history file name: history.
Forces breakdown file name: forces_breakdown.dat.
Surface file name: surface.
Volume file name: vol_solution.
Restart file name: restart.dat.

------------- Config File Boundary Information ( Zone 0 ) ---------------
+-----------------------------------------------------------------------+
|                        Marker Type|                        Marker Name|
+-----------------------------------------------------------------------+
|                          Far-field|                          far-field|
+-----------------------------------------------------------------------+
|                     Heat flux wall|                               wall|
+-----------------------------------------------------------------------+

-------------------- Output Preprocessing ( Zone 0 ) --------------------

WARNING: SURFACE_PRESSURE_DROP can only be computed for at least 2 surfaces (outlet, inlet, ...)

  Info: Ignoring the following screen output fields:
  RMS_NU_TILDE
Screen output fields: INNER_ITER, RMS_DENSITY, RMS_MOMENTUM-X, RMS_MOMENTUM-Y, RMS_ENERGY, DRAG, LIFT, MOMENT_Z, LINSOL_RESIDUAL
History output group(s): ITER, RMS_RES, AERO_COEFF
Convergence field(s): LIFT
Warning: No (valid) fields chosen for time convergence monitoring. Time convergence monitoring inactive.
Volume output fields: COORDINATES, SOLUTION, PRIMITIVE

------------------- Geometry Preprocessing ( Zone 0 ) -------------------
Two dimensional problem.
83111 grid points.
111986 volume elements.
2 surface markers.
76 boundary elements in index 0 (Marker = far-field).
723 boundary elements in index 1 (Marker = wall).
Two dimensional problem.
83111 grid points.
111986 volume elements.
Two dimensional problem.
83111 grid points.
111986 volume elements.
Two dimensional problem.
83111 grid points.
111986 volume elements.
Two dimensional problem.
83111 grid points.
111986 volume elements.
Two dimensional problem.
83111 grid points.
111986 volume elements.
2 surface markers.
76 boundary elements in index 0 (Marker = far-field).
723 boundary elements in index 1 (Marker = wall).
2 surface markers.
76 boundary elements in index 0 (Marker = far-field).
723 boundary elements in index 1 (Marker = wall).
Two dimensional problem.
83111 grid points.
111986 volume elements.
2 surface markers.
76 boundary elements in index 0 (Marker = far-field).
723 boundary elements in index 1 (Marker = wall).
2 surface markers.
76 boundary elements in index 0 (Marker = far-field).
723 boundary elements in index 1 (Marker = wall).
2 surface markers.
76 boundary elements in index 0 (Marker = far-field).
723 boundary elements in index 1 (Marker = wall).
2 surface markers.
76 boundary elements in index 0 (Marker = far-field).
723 boundary elements in index 1 (Marker = wall).
58547 triangles.
53439 quadrilaterals.
Setting point connectivity.
58547 triangles.
53439 quadrilaterals.
58547 triangles.
53439 quadrilaterals.
58547 triangles.
53439 quadrilaterals.
58547 triangles.
53439 quadrilaterals.
58547 triangles.
53439 quadrilaterals.
Setting point connectivity.
Setting point connectivity.
58547 triangles.
53439 quadrilaterals.
Setting point connectivity.
Setting point connectivity.
Setting point connectivity.
Renumbering points (Reverse Cuthill McKee Ordering).
Setting point connectivity.
Recomputing point connectivity.
Renumbering points (Reverse Cuthill McKee Ordering).
Renumbering points (Reverse Cuthill McKee Ordering).
Renumbering points (Reverse Cuthill McKee Ordering).
Renumbering points (Reverse Cuthill McKee Ordering).
Renumbering points (Reverse Cuthill McKee Ordering).
Recomputing point connectivity.
Recomputing point connectivity.
Recomputing point connectivity.
Recomputing point connectivity.
Recomputing point connectivity.
Renumbering points (Reverse Cuthill McKee Ordering).
Setting element connectivity.
Recomputing point connectivity.
Setting element connectivity.
Setting element connectivity.
Setting element connectivity.
Setting element connectivity.
Setting element connectivity.
Checking the numerical grid orientation.
All volume elements are correctly orientend.
All surface elements are correctly orientend.
Identifying edges and vertices.
Setting the control volume structure.
Setting element connectivity.
Checking the numerical grid orientation.
Area of the computational grid: 471199.
Searching for the closest normal neighbors to the surfaces.
Storing a mapping from global to local point index.
All volume elements are correctly orientend.
All surface elements are correctly orientend.
Identifying edges and vertices.
Compute the surface curvature.
Setting the control volume structure.
Max K: 1170.36. Mean K: 8.52189. Standard deviation K: 78.5888.
Checking the numerical grid orientation.
Checking for periodicity.
Computing mesh quality statistics for the dual control volumes.
All volume elements are correctly orientend.
All surface elements are correctly orientend.
Identifying edges and vertices.
Setting the control volume structure.
Checking the numerical grid orientation.
Checking the numerical grid orientation.
Checking the numerical grid orientation.
All volume elements are correctly orientend.
All surface elements are correctly orientend.
Identifying edges and vertices.
All volume elements are correctly orientend.
All surface elements are correctly orientend.
Identifying edges and vertices.
All volume elements are correctly orientend.
All surface elements are correctly orientend.
Identifying edges and vertices.
Area of the computational grid: 471199.
Searching for the closest normal neighbors to the surfaces.
Storing a mapping from global to local point index.
Setting the control volume structure.
Setting the control volume structure.
Setting the control volume structure.
Checking the numerical grid orientation.
All volume elements are correctly orientend.
Compute the surface curvature.
All surface elements are correctly orientend.
Identifying edges and vertices.
Max K: 1170.36. Mean K: 8.52189. Standard deviation K: 78.5888.
Checking for periodicity.
Computing mesh quality statistics for the dual control volumes.
Area of the computational grid: 471199.
Setting the control volume structure.
Searching for the closest normal neighbors to the surfaces.
+--------------------------------------------------------------+
|           Mesh Quality Metric|        Minimum|        Maximum|
+--------------------------------------------------------------+
|    Orthogonality Angle (deg.)|        78.3202|             90|
|     CV Face Area Aspect Ratio|        1.00125|          10910|
|           CV Sub-Volume Ratio|         1.0001|        5.21203|
+--------------------------------------------------------------+
Finding max control volume width.
Storing a mapping from global to local point index.
Wetted area = 6.32542 m.
Area projection in the x-plane = 0.630114 m, y-plane = 2.96262 m.
Max. coordinate in the x-direction = 2.9339 m, y-direction = 0.165086 m.
Min. coordinate in the x-direction = 0 m, y-direction = -0.309055 m.
Computing wall distances.
Compute the surface curvature.
Max K: 1170.36. Mean K: 8.52189. Standard deviation K: 78.5888.
Area of the computational grid: 471199.
Searching for the closest normal neighbors to the surfaces.
Storing a mapping from global to local point index.
Checking for periodicity.
Computing mesh quality statistics for the dual control volumes.
Area of the computational grid: 471199.
Searching for the closest normal neighbors to the surfaces.
Storing a mapping from global to local point index.
Area of the computational grid: 471199.
Searching for the closest normal neighbors to the surfaces.
Storing a mapping from global to local point index.
Compute the surface curvature.
Max K: 1170.36. Mean K: 8.52189. Standard deviation K: 78.5888.
Checking for periodicity.
Computing mesh quality statistics for the dual control volumes.
Compute the surface curvature.
Max K: 1170.36. Mean K: 8.52189. Standard deviation K: 78.5888.
Compute the surface curvature.
Max K: 1170.36. Mean K: 8.52189. Standard deviation K: 78.5888.
Area of the computational grid: 471199.
Checking for periodicity.
Computing mesh quality statistics for the dual control volumes.
Checking for periodicity.
Searching for the closest normal neighbors to the surfaces.
Computing mesh quality statistics for the dual control volumes.
Storing a mapping from global to local point index.
+--------------------------------------------------------------+
|           Mesh Quality Metric|        Minimum|        Maximum|
+--------------------------------------------------------------+
|    Orthogonality Angle (deg.)|        78.3202|             90|
|     CV Face Area Aspect Ratio|        1.00125|          10910|
|           CV Sub-Volume Ratio|         1.0001|        5.21203|
+--------------------------------------------------------------+
Finding max control volume width.
Wetted area = 6.32542 m.
Area projection in the x-plane = 0.630114 m, y-plane = 2.96262 m.
Max. coordinate in the x-direction = 2.9339 m, y-direction = 0.165086 m.
Min. coordinate in the x-direction = 0 m, y-direction = -0.309055 m.
Computing wall distances.
Compute the surface curvature.
Max K: 1170.36. Mean K: 8.52189. Standard deviation K: 78.5888.
Checking for periodicity.
Computing mesh quality statistics for the dual control volumes.
+--------------------------------------------------------------+
|           Mesh Quality Metric|        Minimum|        Maximum|
+--------------------------------------------------------------+
|    Orthogonality Angle (deg.)|        78.3202|             90|
|     CV Face Area Aspect Ratio|        1.00125|          10910|
|           CV Sub-Volume Ratio|         1.0001|        5.21203|
+--------------------------------------------------------------+
Finding max control volume width.
Wetted area = 6.32542 m.
Area projection in the x-plane = 0.630114 m, y-plane = 2.96262 m.
Max. coordinate in the x-direction = 2.9339 m, y-direction = 0.165086 m.
Min. coordinate in the x-direction = 0 m, y-direction = -0.309055 m.
Computing wall distances.

-------------------- Solver Preprocessing ( Zone 0 ) --------------------
Viscous flow: Computing pressure using the ideal gas law
based on the free-stream temperature and a density computed
from the Reynolds number.
Force coefficients computed using free-stream values.

-- Models:
+------------------------------------------------------------------------------+
|          Viscosity Model|        Conductivity Model|              Fluid Model|
+------------------------------------------------------------------------------+
|               SUTHERLAND|          CONSTANT_PRANDTL|             STANDARD_AIR|
+------------------------------------------------------------------------------+
-- Fluid properties:
+------------------------------------------------------------------------------+
|                  Name|    Dim. value|    Ref. value|      Unit|Non-dim. value|
+------------------------------------------------------------------------------+
|        Ref. Viscosity|     1.716e-05|       416.883|   N.s/m^2|   4.11626e-08|
|      Sutherland Temp.|        273.15|        288.16|         K|      0.947911|
|     Sutherland Const.|         110.4|        288.16|         K|       0.38312|
+------------------------------------------------------------------------------+
|        Prandtl (Lam.)|             -|             -|         -|          0.72|
|       Prandtl (Turb.)|             -|             -|         -|           0.9|
+------------------------------------------------------------------------------+
|          Gas Constant|       287.058|       401.881|  N.m/kg.K|      0.714286|
|      Spec. Heat Ratio|             -|             -|         -|           1.4|
+------------------------------------------------------------------------------+
-- Initial and free-stream conditions:
+------------------------------------------------------------------------------+
|                  Name|    Dim. value|    Ref. value|      Unit|Non-dim. value|
+------------------------------------------------------------------------------+
|       Static Pressure|        101333|        141867|        Pa|      0.714286|
|               Density|       1.22504|       1.22504|    kg/m^3|             1|
|           Temperature|        288.16|        288.16|         K|             1|
|          Total Energy|        216131|        115806|   m^2/s^2|       1.86631|
|            Velocity-X|       136.121|       340.303|       m/s|           0.4|
|            Velocity-Y|             0|       340.303|       m/s|             0|
|    Velocity Magnitude|       136.121|       340.303|       m/s|           0.4|
+------------------------------------------------------------------------------+
|             Viscosity|   1.78935e-05|       416.883|   N.s/m^2|    4.2922e-08|
|          Conductivity|             -|        167537|   W/m^2.K|             -|
|     Turb. Kin. Energy|       69.4837|        115806|   m^2/s^2|        0.0006|
|     Spec. Dissipation|        475704|       340.303|       1/s|       1397.88|
+------------------------------------------------------------------------------+
|           Mach Number|             -|             -|         -|           0.4|
|       Reynolds Number|             -|             -|         -|   2.44164e+07|
+------------------------------------------------------------------------------+
Initialize Jacobian structure (Navier-Stokes). MG level: 0.
+--------------------------------------------------------------+
|           Mesh Quality Metric|        Minimum|        Maximum|
+--------------------------------------------------------------+
|    Orthogonality Angle (deg.)|        78.3202|             90|
|     CV Face Area Aspect Ratio|        1.00125|          10910|
|           CV Sub-Volume Ratio|         1.0001|        5.21203|
+--------------------------------------------------------------+
Finding max control volume width.
Wetted area = 6.32542 m.
Area projection in the x-plane = 0.630114 m, y-plane = 2.96262 m.
Max. coordinate in the x-direction = 2.9339 m, y-direction = 0.165086 m.
Min. coordinate in the x-direction = 0 m, y-direction = -0.309055 m.
Computing wall distances.
+--------------------------------------------------------------+
|           Mesh Quality Metric|        Minimum|        Maximum|
+--------------------------------------------------------------+
|    Orthogonality Angle (deg.)|        78.3202|             90|
|     CV Face Area Aspect Ratio|        1.00125|          10910|
|           CV Sub-Volume Ratio|         1.0001|        5.21203|
+--------------------------------------------------------------+
Finding max control volume width.
Wetted area = 6.32542 m.
Area projection in the x-plane = 0.630114 m, y-plane = 2.96262 m.
Max. coordinate in the x-direction = 2.9339 m, y-direction = 0.165086 m.
Min. coordinate in the x-direction = 0 m, y-direction = -0.309055 m.
Computing wall distances.
+--------------------------------------------------------------+
|           Mesh Quality Metric|        Minimum|        Maximum|
+--------------------------------------------------------------+
|    Orthogonality Angle (deg.)|        78.3202|             90|
|     CV Face Area Aspect Ratio|        1.00125|          10910|
|           CV Sub-Volume Ratio|         1.0001|        5.21203|
+--------------------------------------------------------------+
Finding max control volume width.
Wetted area = 6.32542 m.
Area projection in the x-plane = 0.630114 m, y-plane = 2.96262 m.
Max. coordinate in the x-direction = 2.9339 m, y-direction = 0.165086 m.
Min. coordinate in the x-direction = 0 m, y-direction = -0.309055 m.
Computing wall distances.

-------------------- Solver Preprocessing ( Zone 0 ) --------------------
Viscous flow: Computing pressure using the ideal gas law
based on the free-stream temperature and a density computed
from the Reynolds number.
Force coefficients computed using free-stream values.

-- Models:
+------------------------------------------------------------------------------+
|          Viscosity Model|        Conductivity Model|              Fluid Model|
+------------------------------------------------------------------------------+
|               SUTHERLAND|          CONSTANT_PRANDTL|             STANDARD_AIR|
+------------------------------------------------------------------------------+
-- Fluid properties:
+------------------------------------------------------------------------------+
|                  Name|    Dim. value|    Ref. value|      Unit|Non-dim. value|
+------------------------------------------------------------------------------+
|        Ref. Viscosity|     1.716e-05|       416.883|   N.s/m^2|   4.11626e-08|
|      Sutherland Temp.|        273.15|        288.16|         K|      0.947911|
|     Sutherland Const.|         110.4|        288.16|         K|       0.38312|
+------------------------------------------------------------------------------+
|        Prandtl (Lam.)|             -|             -|         -|          0.72|
|       Prandtl (Turb.)|             -|             -|         -|           0.9|
+------------------------------------------------------------------------------+
|          Gas Constant|       287.058|       401.881|  N.m/kg.K|      0.714286|
|      Spec. Heat Ratio|             -|             -|         -|           1.4|
+------------------------------------------------------------------------------+
-- Initial and free-stream conditions:
+------------------------------------------------------------------------------+
|                  Name|    Dim. value|    Ref. value|      Unit|Non-dim. value|
+------------------------------------------------------------------------------+
|       Static Pressure|        101333|        141867|        Pa|      0.714286|
|               Density|       1.22504|       1.22504|    kg/m^3|             1|
|           Temperature|        288.16|        288.16|         K|             1|
|          Total Energy|        216131|        115806|   m^2/s^2|       1.86631|
|            Velocity-X|       136.121|       340.303|       m/s|           0.4|
|            Velocity-Y|             0|       340.303|       m/s|             0|
|    Velocity Magnitude|       136.121|       340.303|       m/s|           0.4|
+------------------------------------------------------------------------------+
|             Viscosity|   1.78935e-05|       416.883|   N.s/m^2|    4.2922e-08|
|          Conductivity|             -|        167537|   W/m^2.K|             -|
|     Turb. Kin. Energy|       69.4837|        115806|   m^2/s^2|        0.0006|
|     Spec. Dissipation|        475704|       340.303|       1/s|       1397.88|
+------------------------------------------------------------------------------+
|           Mach Number|             -|             -|         -|           0.4|
|       Reynolds Number|             -|             -|         -|   2.44164e+07|
+------------------------------------------------------------------------------+
Initialize Jacobian structure (Navier-Stokes). MG level: 0.
+--------------------------------------------------------------+
|           Mesh Quality Metric|        Minimum|        Maximum|
+--------------------------------------------------------------+
|    Orthogonality Angle (deg.)|        78.3202|             90|
|     CV Face Area Aspect Ratio|        1.00125|          10910|
|           CV Sub-Volume Ratio|         1.0001|        5.21203|
+--------------------------------------------------------------+
Finding max control volume width.

-------------------- Solver Preprocessing ( Zone 0 ) --------------------
Viscous flow: Computing pressure using the ideal gas law
based on the free-stream temperature and a density computed
from the Reynolds number.
Force coefficients computed using free-stream values.

-- Models:
+------------------------------------------------------------------------------+
|          Viscosity Model|        Conductivity Model|              Fluid Model|
+------------------------------------------------------------------------------+
|               SUTHERLAND|          CONSTANT_PRANDTL|             STANDARD_AIR|
+------------------------------------------------------------------------------+
-- Fluid properties:
+------------------------------------------------------------------------------+
|                  Name|    Dim. value|    Ref. value|      Unit|Non-dim. value|
+------------------------------------------------------------------------------+
|        Ref. Viscosity|     1.716e-05|       416.883|   N.s/m^2|   4.11626e-08|
|      Sutherland Temp.|        273.15|        288.16|         K|      0.947911|
|     Sutherland Const.|         110.4|        288.16|         K|       0.38312|
+------------------------------------------------------------------------------+
|        Prandtl (Lam.)|             -|             -|         -|          0.72|
|       Prandtl (Turb.)|             -|             -|         -|           0.9|
+------------------------------------------------------------------------------+
|          Gas Constant|       287.058|       401.881|  N.m/kg.K|      0.714286|
|      Spec. Heat Ratio|             -|             -|         -|           1.4|
+------------------------------------------------------------------------------+
-- Initial and free-stream conditions:
+------------------------------------------------------------------------------+
|                  Name|    Dim. value|    Ref. value|      Unit|Non-dim. value|
+------------------------------------------------------------------------------+
|       Static Pressure|        101333|        141867|        Pa|      0.714286|
|               Density|       1.22504|       1.22504|    kg/m^3|             1|
|           Temperature|        288.16|        288.16|         K|             1|
|          Total Energy|        216131|        115806|   m^2/s^2|       1.86631|
|            Velocity-X|       136.121|       340.303|       m/s|           0.4|
|            Velocity-Y|             0|       340.303|       m/s|             0|
|    Velocity Magnitude|       136.121|       340.303|       m/s|           0.4|
+------------------------------------------------------------------------------+
|             Viscosity|   1.78935e-05|       416.883|   N.s/m^2|    4.2922e-08|
|          Conductivity|             -|        167537|   W/m^2.K|             -|
|     Turb. Kin. Energy|       69.4837|        115806|   m^2/s^2|        0.0006|
|     Spec. Dissipation|        475704|       340.303|       1/s|       1397.88|
+------------------------------------------------------------------------------+
|           Mach Number|             -|             -|         -|           0.4|
|       Reynolds Number|             -|             -|         -|   2.44164e+07|
+------------------------------------------------------------------------------+
Initialize Jacobian structure (Navier-Stokes). MG level: 0.
Wetted area = 6.32542 m.
Area projection in the x-plane = 0.630114 m, y-plane = 2.96262 m.
Max. coordinate in the x-direction = 2.9339 m, y-direction = 0.165086 m.
Min. coordinate in the x-direction = 0 m, y-direction = -0.309055 m.
Computing wall distances.

-------------------- Solver Preprocessing ( Zone 0 ) --------------------
Viscous flow: Computing pressure using the ideal gas law
based on the free-stream temperature and a density computed
from the Reynolds number.
Force coefficients computed using free-stream values.

-- Models:
+------------------------------------------------------------------------------+
|          Viscosity Model|        Conductivity Model|              Fluid Model|
+------------------------------------------------------------------------------+
|               SUTHERLAND|          CONSTANT_PRANDTL|             STANDARD_AIR|
+------------------------------------------------------------------------------+
-- Fluid properties:
+------------------------------------------------------------------------------+
|                  Name|    Dim. value|    Ref. value|      Unit|Non-dim. value|
+------------------------------------------------------------------------------+
|        Ref. Viscosity|     1.716e-05|       416.883|   N.s/m^2|   4.11626e-08|
|      Sutherland Temp.|        273.15|        288.16|         K|      0.947911|
|     Sutherland Const.|         110.4|        288.16|         K|       0.38312|
+------------------------------------------------------------------------------+
|        Prandtl (Lam.)|             -|             -|         -|          0.72|
|       Prandtl (Turb.)|             -|             -|         -|           0.9|
+------------------------------------------------------------------------------+
|          Gas Constant|       287.058|       401.881|  N.m/kg.K|      0.714286|
|      Spec. Heat Ratio|             -|             -|         -|           1.4|
+------------------------------------------------------------------------------+
-- Initial and free-stream conditions:
+------------------------------------------------------------------------------+
|                  Name|    Dim. value|    Ref. value|      Unit|Non-dim. value|
+------------------------------------------------------------------------------+
|       Static Pressure|        101333|        141867|        Pa|      0.714286|
|               Density|       1.22504|       1.22504|    kg/m^3|             1|
|           Temperature|        288.16|        288.16|         K|             1|
|          Total Energy|        216131|        115806|   m^2/s^2|       1.86631|
|            Velocity-X|       136.121|       340.303|       m/s|           0.4|
|            Velocity-Y|             0|       340.303|       m/s|             0|
|    Velocity Magnitude|       136.121|       340.303|       m/s|           0.4|
+------------------------------------------------------------------------------+
|             Viscosity|   1.78935e-05|       416.883|   N.s/m^2|    4.2922e-08|
|          Conductivity|             -|        167537|   W/m^2.K|             -|
|     Turb. Kin. Energy|       69.4837|        115806|   m^2/s^2|        0.0006|
|     Spec. Dissipation|        475704|       340.303|       1/s|       1397.88|
+------------------------------------------------------------------------------+
|           Mach Number|             -|             -|         -|           0.4|
|       Reynolds Number|             -|             -|         -|   2.44164e+07|
+------------------------------------------------------------------------------+
Initialize Jacobian structure (Navier-Stokes). MG level: 0.

-------------------- Solver Preprocessing ( Zone 0 ) --------------------
Viscous flow: Computing pressure using the ideal gas law
based on the free-stream temperature and a density computed
from the Reynolds number.
Force coefficients computed using free-stream values.

-- Models:
+------------------------------------------------------------------------------+
|          Viscosity Model|        Conductivity Model|              Fluid Model|
+------------------------------------------------------------------------------+
|               SUTHERLAND|          CONSTANT_PRANDTL|             STANDARD_AIR|
+------------------------------------------------------------------------------+
-- Fluid properties:
+------------------------------------------------------------------------------+
|                  Name|    Dim. value|    Ref. value|      Unit|Non-dim. value|
+------------------------------------------------------------------------------+
|        Ref. Viscosity|     1.716e-05|       416.883|   N.s/m^2|   4.11626e-08|
|      Sutherland Temp.|        273.15|        288.16|         K|      0.947911|
|     Sutherland Const.|         110.4|        288.16|         K|       0.38312|
+------------------------------------------------------------------------------+
|        Prandtl (Lam.)|             -|             -|         -|          0.72|
|       Prandtl (Turb.)|             -|             -|         -|           0.9|
+------------------------------------------------------------------------------+
|          Gas Constant|       287.058|       401.881|  N.m/kg.K|      0.714286|
|      Spec. Heat Ratio|             -|             -|         -|           1.4|
+------------------------------------------------------------------------------+
-- Initial and free-stream conditions:
+------------------------------------------------------------------------------+
|                  Name|    Dim. value|    Ref. value|      Unit|Non-dim. value|
+------------------------------------------------------------------------------+
|       Static Pressure|        101333|        141867|        Pa|      0.714286|
|               Density|       1.22504|       1.22504|    kg/m^3|             1|
|           Temperature|        288.16|        288.16|         K|             1|
|          Total Energy|        216131|        115806|   m^2/s^2|       1.86631|
|            Velocity-X|       136.121|       340.303|       m/s|           0.4|
|            Velocity-Y|             0|       340.303|       m/s|             0|
|    Velocity Magnitude|       136.121|       340.303|       m/s|           0.4|
+------------------------------------------------------------------------------+
|             Viscosity|   1.78935e-05|       416.883|   N.s/m^2|    4.2922e-08|
|          Conductivity|             -|        167537|   W/m^2.K|             -|
|     Turb. Kin. Energy|       69.4837|        115806|   m^2/s^2|        0.0006|
|     Spec. Dissipation|        475704|       340.303|       1/s|       1397.88|
+------------------------------------------------------------------------------+
|           Mach Number|             -|             -|         -|           0.4|
|       Reynolds Number|             -|             -|         -|   2.44164e+07|
+------------------------------------------------------------------------------+
Initialize Jacobian structure (Navier-Stokes). MG level: 0.

-------------------- Solver Preprocessing ( Zone 0 ) --------------------
Viscous flow: Computing pressure using the ideal gas law
based on the free-stream temperature and a density computed
from the Reynolds number.
Force coefficients computed using free-stream values.

-- Models:
+------------------------------------------------------------------------------+
|          Viscosity Model|        Conductivity Model|              Fluid Model|
+------------------------------------------------------------------------------+
|               SUTHERLAND|          CONSTANT_PRANDTL|             STANDARD_AIR|
+------------------------------------------------------------------------------+
-- Fluid properties:
+------------------------------------------------------------------------------+
|                  Name|    Dim. value|    Ref. value|      Unit|Non-dim. value|
+------------------------------------------------------------------------------+
|        Ref. Viscosity|     1.716e-05|       416.883|   N.s/m^2|   4.11626e-08|
|      Sutherland Temp.|        273.15|        288.16|         K|      0.947911|
|     Sutherland Const.|         110.4|        288.16|         K|       0.38312|
+------------------------------------------------------------------------------+
|        Prandtl (Lam.)|             -|             -|         -|          0.72|
|       Prandtl (Turb.)|             -|             -|         -|           0.9|
+------------------------------------------------------------------------------+
[...]
|      Convergence Field     |     Value    |   Criterion  |  Converged |
+-----------------------------------------------------------------------+
|                  Cauchy[CL]|    0.00531563|       < 5e-07|          No|
+-----------------------------------------------------------------------+
-------------------------------------------------------------------------
+-----------------------------------------------------------------------+
|        File Writing Summary       |              Filename             |
+-----------------------------------------------------------------------+
|SU2 binary restart                 |restart.dat                        |
|Paraview                           |vol_solution.vtu                   |
|Paraview surface                   |surface.vtu                        |
+-----------------------------------------------------------------------+

------------------------- Solver Postprocessing -------------------------
Deleted CNumerics container.
Deleted CIntegration container.
+-----------------------------------------------------------------------+
|        File Writing Summary       |              Filename             |
+-----------------------------------------------------------------------+
|SU2 binary restart                 |restart.dat                        |
|Paraview                           |vol_solution.vtu                   |
|Paraview surface                   |surface.vtu                        |
+-----------------------------------------------------------------------+

------------------------- Solver Postprocessing -------------------------
Deleted CNumerics container.
Deleted CIntegration container.
Deleted CSolver container.
Deleted CIteration container.
Deleted CInterface container.
Deleted CSolver container.
Deleted CIteration container.
Deleted CInterface container.
Deleted CSolver container.
Deleted CIteration container.
Deleted CInterface container.
Deleted CSolver container.
Deleted CIteration container.
Deleted CInterface container.
+--------------------------------------------------------------------------------------------------------------------+
|  Inner_Iter|    rms[Rho]|   rms[RhoU]|   rms[RhoV]|   rms[RhoE]|          CD|          CL|         CMz|   LinSolRes|
+--------------------------------------------------------------------------------------------------------------------+
|           0|   -4.070208|  -15.439827|  -15.749867|   -3.658487|    0.764620|    0.758969|    0.566939|   -0.742399|
|          25|   -4.631080|   -4.497556|   -4.646885|   -4.245464|   -0.021455|    1.302042|    0.357238|   -0.956393|
|          50|   -5.104468|   -4.619375|   -4.861797|   -4.662786|    0.159550|    1.486315|    0.176779|   -0.686493|
|          75|   -5.295079|   -5.055331|   -5.188469|   -4.921347|    0.078284|    1.992103|    0.355469|   -0.686247|
|         100|   -5.554838|   -5.256691|   -5.361887|   -5.154851|    0.044482|    1.662955|    0.216299|   -0.777670|
|         125|   -5.673444|   -5.276237|   -5.423692|   -5.257989|    0.043907|    1.846011|    0.257274|   -0.706279|
|         150|   -5.834429|   -5.512280|   -5.708562|   -5.418895|    0.066273|    1.918846|    0.255529|   -0.657965|
|         175|   -6.099698|   -5.972824|   -6.069666|   -5.748788|    0.052861|    1.926502|    0.273736|   -0.584986|
|         200|   -6.301740|   -6.102035|   -6.236080|   -5.941081|    0.049627|    1.958686|    0.261052|   -1.004033|
|         225|   -6.373848|   -6.361274|   -6.433543|   -6.017249|    0.051597|    1.996386|    0.275291|   -0.681946|
|         250|   -6.449367|   -6.331396|   -6.428429|   -6.081547|    0.043546|    2.034066|    0.268896|   -0.627526|
|         275|   -6.606170|   -6.470726|   -6.727050|   -6.240917|    0.042116|    2.048027|    0.271696|   -0.654715|
|         300|   -6.665395|   -6.596014|   -6.662296|   -6.302781|    0.037987|    2.065481|    0.270856|   -0.638501|
+-----------------------------------------------------------------------+
|        File Writing Summary       |              Filename             |
+-----------------------------------------------------------------------+
|SU2 binary restart                 |restart.dat                        |
|Paraview                           |vol_solution.vtu                   |
|Paraview surface                   |surface.vtu                        |
+-----------------------------------------------------------------------+
+--------------------------------------------------------------------------------------------------------------------+
|  Inner_Iter|    rms[Rho]|   rms[RhoU]|   rms[RhoV]|   rms[RhoE]|          CD|          CL|         CMz|   LinSolRes|
+--------------------------------------------------------------------------------------------------------------------+
|         325|   -6.776507|   -6.626112|   -6.894650|   -6.411970|    0.036758|    2.071141|    0.269728|   -0.673369|
|         350|   -6.856048|   -6.890371|   -6.988963|   -6.500599|    0.035406|    2.081516|    0.272624|   -0.711504|
|         375|   -6.929106|   -6.812118|   -7.028124|   -6.569458|    0.033623|    2.087322|    0.270323|   -0.704566|
|         400|   -7.001857|   -6.922946|   -7.267813|   -6.633819|    0.033013|    2.092566|    0.271901|   -0.845472|
|         425|   -7.084462|   -6.963683|   -7.162004|   -6.722806|    0.031330|    2.096610|    0.271313|   -0.689344|
|         450|   -7.170786|   -7.000005|   -7.430434|   -6.802484|    0.030781|    2.098289|    0.270635|   -0.796760|
|         475|   -7.244730|   -7.118329|   -7.497479|   -6.883656|    0.029782|    2.100874|    0.271426|   -0.691686|
|         499|   -7.230409|   -7.113120|   -7.415071|   -6.883897|    0.029117|    2.101302|    0.270686|   -0.818808|

----------------------------- Solver Exit -------------------------------

Maximum number of iterations reached (ITER = 500) before convergence.
+-----------------------------------------------------------------------+
|      Convergence Field     |     Value    |   Criterion  |  Converged |
+-----------------------------------------------------------------------+
|                  Cauchy[CL]|    0.00531563|       < 5e-07|          No|
+-----------------------------------------------------------------------+
-------------------------------------------------------------------------
+-----------------------------------------------------------------------+
|        File Writing Summary       |              Filename             |
+-----------------------------------------------------------------------+
|SU2 binary restart                 |restart.dat                        |
|Paraview                           |vol_solution.vtu                   |
|Paraview surface                   |surface.vtu                        |
+-----------------------------------------------------------------------+

------------------------- Solver Postprocessing -------------------------
Deleted CNumerics container.
Deleted CIntegration container.
Deleted CSolver container.
Deleted CIteration container.
Deleted CInterface container.
Deleted CGeometry container.
Deleted CGeometry container.
Deleted CGeometry container.
Deleted CGeometry container.
Deleted CFreeFormDefBox class.
Deleted CFreeFormDefBox class.
Deleted CFreeFormDefBox class.
Deleted CFreeFormDefBox class.
Deleted CSurfaceMovement class.
Deleted CSurfaceMovement class.
Deleted CSurfaceMovement class.
Deleted CSurfaceMovement class.
Deleted CGeometry container.
Deleted CVolumetricMovement class.
Deleted CVolumetricMovement class.
Deleted CVolumetricMovement class.
Deleted CVolumetricMovement class.
Deleted CFreeFormDefBox class.
Deleted CSurfaceMovement class.
Deleted CVolumetricMovement class.
+--------------------------------------------------------------------------------------------------------------------+
|  Inner_Iter|    rms[Rho]|   rms[RhoU]|   rms[RhoV]|   rms[RhoE]|          CD|          CL|         CMz|   LinSolRes|
+--------------------------------------------------------------------------------------------------------------------+
|           0|   -4.070208|  -15.439827|  -15.749867|   -3.658487|    0.764620|    0.758969|    0.566939|   -0.742399|
|          25|   -4.631080|   -4.497556|   -4.646885|   -4.245464|   -0.021455|    1.302042|    0.357238|   -0.956393|
|          50|   -5.104468|   -4.619375|   -4.861797|   -4.662786|    0.159550|    1.486315|    0.176779|   -0.686493|
|          75|   -5.295079|   -5.055331|   -5.188469|   -4.921347|    0.078284|    1.992103|    0.355469|   -0.686247|
|         100|   -5.554838|   -5.256691|   -5.361887|   -5.154851|    0.044482|    1.662955|    0.216299|   -0.777670|
|         125|   -5.673444|   -5.276237|   -5.423692|   -5.257989|    0.043907|    1.846011|    0.257274|   -0.706279|
|         150|   -5.834429|   -5.512280|   -5.708562|   -5.418895|    0.066273|    1.918846|    0.255529|   -0.657965|
|         175|   -6.099698|   -5.972824|   -6.069666|   -5.748788|    0.052861|    1.926502|    0.273736|   -0.584986|
|         200|   -6.301740|   -6.102035|   -6.236080|   -5.941081|    0.049627|    1.958686|    0.261052|   -1.004033|
|         225|   -6.373848|   -6.361274|   -6.433543|   -6.017249|    0.051597|    1.996386|    0.275291|   -0.681946|
|         250|   -6.449367|   -6.331396|   -6.428429|   -6.081547|    0.043546|    2.034066|    0.268896|   -0.627526|
|         275|   -6.606170|   -6.470726|   -6.727050|   -6.240917|    0.042116|    2.048027|    0.271696|   -0.654715|
|         300|   -6.665395|   -6.596014|   -6.662296|   -6.302781|    0.037987|    2.065481|    0.270856|   -0.638501|
+-----------------------------------------------------------------------+
|        File Writing Summary       |              Filename             |
+-----------------------------------------------------------------------+
|SU2 binary restart                 |restart.dat                        |
|Paraview                           |vol_solution.vtu                   |
|Paraview surface                   |surface.vtu                        |
+-----------------------------------------------------------------------+
+--------------------------------------------------------------------------------------------------------------------+
|  Inner_Iter|    rms[Rho]|   rms[RhoU]|   rms[RhoV]|   rms[RhoE]|          CD|          CL|         CMz|   LinSolRes|
+--------------------------------------------------------------------------------------------------------------------+
|         325|   -6.776507|   -6.626112|   -6.894650|   -6.411970|    0.036758|    2.071141|    0.269728|   -0.673369|
|         350|   -6.856048|   -6.890371|   -6.988963|   -6.500599|    0.035406|    2.081516|    0.272624|   -0.711504|
|         375|   -6.929106|   -6.812118|   -7.028124|   -6.569458|    0.033623|    2.087322|    0.270323|   -0.704566|
|         400|   -7.001857|   -6.922946|   -7.267813|   -6.633819|    0.033013|    2.092566|    0.271901|   -0.845472|
|         425|   -7.084462|   -6.963683|   -7.162004|   -6.722806|    0.031330|    2.096610|    0.271313|   -0.689344|
|         450|   -7.170786|   -7.000005|   -7.430434|   -6.802484|    0.030781|    2.098289|    0.270635|   -0.796760|
|         475|   -7.244730|   -7.118329|   -7.497479|   -6.883656|    0.029782|    2.100874|    0.271426|   -0.691686|
|         499|   -7.230409|   -7.113120|   -7.415071|   -6.883897|    0.029117|    2.101302|    0.270686|   -0.818808|

----------------------------- Solver Exit -------------------------------

Maximum number of iterations reached (ITER = 500) before convergence.
+-----------------------------------------------------------------------+
|      Convergence Field     |     Value    |   Criterion  |  Converged |
+-----------------------------------------------------------------------+
|                  Cauchy[CL]|    0.00531563|       < 5e-07|          No|
+-----------------------------------------------------------------------+
-------------------------------------------------------------------------
Deleted CConfig container.
Deleted nInst container.
Deleted CConfig container.
Deleted CConfig container.
Deleted nInst container.
Deleted nInst container.
Deleted CConfig container.
Deleted nInst container.
Deleted CConfig container.
Deleted nInst container.
Deleted COutput class.
Deleted COutput class.
-------------------------------------------------------------------------
Deleted COutput class.
-------------------------------------------------------------------------
Deleted COutput class.

-------------------------------------------------------------------------

Deleted COutput class.
-------------------------------------------------------------------------
------------------------- Exit Success (SU2_CFD) ------------------------

------------------------- Exit Success (SU2_CFD) ------------------------
-------------------------------------------------------------------------


------------------------- Exit Success (SU2_CFD) ------------------------


------------------------- Exit Success (SU2_CFD) ------------------------

------------------------- Exit Success (SU2_CFD) ------------------------


+-----------------------------------------------------------------------+
|        File Writing Summary       |              Filename             |
+-----------------------------------------------------------------------+
|SU2 binary restart                 |restart.dat                        |
|Paraview                           |vol_solution.vtu                   |
|Paraview surface                   |surface.vtu                        |
+-----------------------------------------------------------------------+

------------------------- Solver Postprocessing -------------------------
Deleted CNumerics container.
Deleted CIntegration container.
Deleted CSolver container.
Deleted CIteration container.
Deleted CInterface container.
Deleted CGeometry container.
Deleted CFreeFormDefBox class.
Deleted CSurfaceMovement class.
Deleted CVolumetricMovement class.
Deleted CConfig container.
Deleted nInst container.
Deleted COutput class.
-------------------------------------------------------------------------

------------------------- Exit Success (SU2_CFD) ------------------------

+--------------------------------------------------------------------------------------------------------------------+
|  Inner_Iter|    rms[Rho]|   rms[RhoU]|   rms[RhoV]|   rms[RhoE]|          CD|          CL|         CMz|   LinSolRes|
+--------------------------------------------------------------------------------------------------------------------+
|           0|   -4.070208|  -15.439827|  -15.749867|   -3.658487|    0.764620|    0.758969|    0.566939|   -0.742399|
|          25|   -4.631080|   -4.497556|   -4.646885|   -4.245464|   -0.021455|    1.302042|    0.357238|   -0.956393|
|          50|   -5.104468|   -4.619375|   -4.861797|   -4.662786|    0.159550|    1.486315|    0.176779|   -0.686493|
|          75|   -5.295079|   -5.055331|   -5.188469|   -4.921347|    0.078284|    1.992103|    0.355469|   -0.686247|
|         100|   -5.554838|   -5.256691|   -5.361887|   -5.154851|    0.044482|    1.662955|    0.216299|   -0.777670|
|         125|   -5.673444|   -5.276237|   -5.423692|   -5.257989|    0.043907|    1.846011|    0.257274|   -0.706279|
|         150|   -5.834429|   -5.512280|   -5.708562|   -5.418895|    0.066273|    1.918846|    0.255529|   -0.657965|
|         175|   -6.099698|   -5.972824|   -6.069666|   -5.748788|    0.052861|    1.926502|    0.273736|   -0.584986|
|         200|   -6.301740|   -6.102035|   -6.236080|   -5.941081|    0.049627|    1.958686|    0.261052|   -1.004033|
|         225|   -6.373848|   -6.361274|   -6.433543|   -6.017249|    0.051597|    1.996386|    0.275291|   -0.681946|
|         250|   -6.449367|   -6.331396|   -6.428429|   -6.081547|    0.043546|    2.034066|    0.268896|   -0.627526|
|         275|   -6.606170|   -6.470726|   -6.727050|   -6.240917|    0.042116|    2.048027|    0.271696|   -0.654715|
|         300|   -6.665395|   -6.596014|   -6.662296|   -6.302781|    0.037987|    2.065481|    0.270856|   -0.638501|
+-----------------------------------------------------------------------+
|        File Writing Summary       |              Filename             |
+-----------------------------------------------------------------------+
|SU2 binary restart                 |restart.dat                        |
|Paraview                           |vol_solution.vtu                   |
|Paraview surface                   |surface.vtu                        |
+-----------------------------------------------------------------------+
+--------------------------------------------------------------------------------------------------------------------+
|  Inner_Iter|    rms[Rho]|   rms[RhoU]|   rms[RhoV]|   rms[RhoE]|          CD|          CL|         CMz|   LinSolRes|
+--------------------------------------------------------------------------------------------------------------------+
|         325|   -6.776507|   -6.626112|   -6.894650|   -6.411970|    0.036758|    2.071141|    0.269728|   -0.673369|
|         350|   -6.856048|   -6.890371|   -6.988963|   -6.500599|    0.035406|    2.081516|    0.272624|   -0.711504|
|         375|   -6.929106|   -6.812118|   -7.028124|   -6.569458|    0.033623|    2.087322|    0.270323|   -0.704566|
|         400|   -7.001857|   -6.922946|   -7.267813|   -6.633819|    0.033013|    2.092566|    0.271901|   -0.845472|
|         425|   -7.084462|   -6.963683|   -7.162004|   -6.722806|    0.031330|    2.096610|    0.271313|   -0.689344|
|         450|   -7.170786|   -7.000005|   -7.430434|   -6.802484|    0.030781|    2.098289|    0.270635|   -0.796760|
|         475|   -7.244730|   -7.118329|   -7.497479|   -6.883656|    0.029782|    2.100874|    0.271426|   -0.691686|
|         499|   -7.230409|   -7.113120|   -7.415071|   -6.883897|    0.029117|    2.101302|    0.270686|   -0.818808|

----------------------------- Solver Exit -------------------------------

Maximum number of iterations reached (ITER = 500) before convergence.
+-----------------------------------------------------------------------+
|      Convergence Field     |     Value    |   Criterion  |  Converged |
+-----------------------------------------------------------------------+
|                  Cauchy[CL]|    0.00531563|       < 5e-07|          No|
+-----------------------------------------------------------------------+
-------------------------------------------------------------------------
+-----------------------------------------------------------------------+
|        File Writing Summary       |              Filename             |
+-----------------------------------------------------------------------+
|SU2 binary restart                 |restart.dat                        |
|Paraview                           |vol_solution.vtu                   |
|Paraview surface                   |surface.vtu                        |
+-----------------------------------------------------------------------+

------------------------- Solver Postprocessing -------------------------
Deleted CNumerics container.
Deleted CIntegration container.
Deleted CSolver container.
Deleted CIteration container.
Deleted CInterface container.
Deleted CGeometry container.
Deleted CFreeFormDefBox class.
Deleted CSurfaceMovement class.
Deleted CVolumetricMovement class.
Deleted CConfig container.
Deleted nInst container.
Deleted COutput class.
-------------------------------------------------------------------------

------------------------- Exit Success (SU2_CFD) ------------------------

