WARNING: The current SST-1994m model is inconsistent with literature. We recommend using the SST-2003m model.
In SU2 v8 the 2003m model will become default, and the inconsistency will be fixed.
WARNING: The current SST-1994m model is inconsistent with literature. We recommend using the SST-2003m model.
In SU2 v8 the 2003m model will become default, and the inconsistency will be fixed.
WARNING: The current SST-1994m model is inconsistent with literature. We recommend using the SST-2003m model.
In SU2 v8 the 2003m model will become default, and the inconsistency will be fixed.
WARNING: The current SST-1994m model is inconsistent with literature. We recommend using the SST-2003m model.
In SU2 v8 the 2003m model will become default, and the inconsistency will be fixed.




-------------------------------------------------------------------------
-------------------------------------------------------------------------
-------------------------------------------------------------------------
-------------------------------------------------------------------------
|    ___ _   _ ___                                                      |
|    ___ _   _ ___                                                      |
|    ___ _   _ ___                                                      |
|    ___ _   _ ___                                                      |
|   / __| | | |_  )   Release 7.5.1 "Blackbird"                         |
|   / __| | | |_  )   Release 7.5.1 "Blackbird"                         |
|   / __| | | |_  )   Release 7.5.1 "Blackbird"                         |
|   / __| | | |_  )   Release 7.5.1 "Blackbird"                         |
|   \__ \ |_| |/ /                                                      |
|   \__ \ |_| |/ /                                                      |
|   \__ \ |_| |/ /                                                      |
|   \__ \ |_| |/ /                                                      |
|   |___/\___//___|   Suite (Computational Fluid Dynamics Code)         |
|   |___/\___//___|   Suite (Computational Fluid Dynamics Code)         |
|   |___/\___//___|   Suite (Computational Fluid Dynamics Code)         |
|   |___/\___//___|   Suite (Computational Fluid Dynamics Code)         |
|                                                                       |
|                                                                       |
|                                                                       |
|                                                                       |
-------------------------------------------------------------------------
-------------------------------------------------------------------------
-------------------------------------------------------------------------
-------------------------------------------------------------------------
| SU2 Project Website: https://su2code.github.io                        |
| SU2 Project Website: https://su2code.github.io                        |
| SU2 Project Website: https://su2code.github.io                        |
| SU2 Project Website: https://su2code.github.io                        |
|                                                                       |
|                                                                       |
|                                                                       |
|                                                                       |
| The SU2 Project is maintained by the SU2 Foundation                   |
| The SU2 Project is maintained by the SU2 Foundation                   |
| The SU2 Project is maintained by the SU2 Foundation                   |
| The SU2 Project is maintained by the SU2 Foundation                   |
| (http://su2foundation.org)                                            |
| (http://su2foundation.org)                                            |
| (http://su2foundation.org)                                            |
-------------------------------------------------------------------------
| (http://su2foundation.org)                                            |
-------------------------------------------------------------------------
-------------------------------------------------------------------------
| Copyright 2012-2023, SU2 Contributors                                 |
-------------------------------------------------------------------------
| Copyright 2012-2023, SU2 Contributors                                 |
| Copyright 2012-2023, SU2 Contributors                                 |
|                                                                       |
| Copyright 2012-2023, SU2 Contributors                                 |
|                                                                       |
|                                                                       |
| SU2 is free software; you can redistribute it and/or                  |
|                                                                       |
| SU2 is free software; you can redistribute it and/or                  |
| SU2 is free software; you can redistribute it and/or                  |
| modify it under the terms of the GNU Lesser General Public            |
| SU2 is free software; you can redistribute it and/or                  |
| modify it under the terms of the GNU Lesser General Public            |
| modify it under the terms of the GNU Lesser General Public            |
| License as published by the Free Software Foundation; either          |
| modify it under the terms of the GNU Lesser General Public            |
| License as published by the Free Software Foundation; either          |
| License as published by the Free Software Foundation; either          |
| version 2.1 of the License, or (at your option) any later version.    |
| License as published by the Free Software Foundation; either          |
| version 2.1 of the License, or (at your option) any later version.    |
| version 2.1 of the License, or (at your option) any later version.    |
|                                                                       |
| version 2.1 of the License, or (at your option) any later version.    |
|                                                                       |
|                                                                       |
| SU2 is distributed in the hope that it will be useful,                |
|                                                                       |
| SU2 is distributed in the hope that it will be useful,                |
| SU2 is distributed in the hope that it will be useful,                |
| but WITHOUT ANY WARRANTY; without even the implied warranty of        |
| SU2 is distributed in the hope that it will be useful,                |
| but WITHOUT ANY WARRANTY; without even the implied warranty of        |
| but WITHOUT ANY WARRANTY; without even the implied warranty of        |
| MERCHANTABILITY or FITNESS FOR A PARTICULAR PURPOSE. See the GNU      |
| but WITHOUT ANY WARRANTY; without even the implied warranty of        |
| MERCHANTABILITY or FITNESS FOR A PARTICULAR PURPOSE. See the GNU      |
| MERCHANTABILITY or FITNESS FOR A PARTICULAR PURPOSE. See the GNU      |
| Lesser General Public License for more details.                       |
| MERCHANTABILITY or FITNESS FOR A PARTICULAR PURPOSE. See the GNU      |
| Lesser General Public License for more details.                       |
| Lesser General Public License for more details.                       |
|                                                                       |
| Lesser General Public License for more details.                       |
|                                                                       |
|                                                                       |
| You should have received a copy of the GNU Lesser General Public      |
|                                                                       |
| You should have received a copy of the GNU Lesser General Public      |
| You should have received a copy of the GNU Lesser General Public      |
| License along with SU2. If not, see <http://www.gnu.org/licenses/>.   |
| You should have received a copy of the GNU Lesser General Public      |
| License along with SU2. If not, see <http://www.gnu.org/licenses/>.   |
| License along with SU2. If not, see <http://www.gnu.org/licenses/>.   |
-------------------------------------------------------------------------
| License along with SU2. If not, see <http://www.gnu.org/licenses/>.   |
-------------------------------------------------------------------------
-------------------------------------------------------------------------
-------------------------------------------------------------------------
WARNING: The current SST-1994m model is inconsistent with literature. We recommend using the SST-2003m model.
In SU2 v8 the 2003m model will become default, and the inconsistency will be fixed.
WARNING: The current SST-1994m model is inconsistent with literature. We recommend using the SST-2003m model.
In SU2 v8 the 2003m model will become default, and the inconsistency will be fixed.
WARNING: The current SST-1994m model is inconsistent with literature. We recommend using the SST-2003m model.
In SU2 v8 the 2003m model will become default, and the inconsistency will be fixed.



WARNING: The current SST-1994m model is inconsistent with literature. We recommend using the SST-2003m model.
In SU2 v8 the 2003m model will become default, and the inconsistency will be fixed.
Parsing config file for zone 0
Parsing config file for zone 0
Parsing config file for zone 0

Parsing config file for zone 0
WARNING: The current SST-1994m model is inconsistent with literature. We recommend using the SST-2003m model.
In SU2 v8 the 2003m model will become default, and the inconsistency will be fixed.

----------------- Physical Case Definition ( Zone 0 ) -------------------
Compressible RANS equations.
Turbulence model: Menter's k-omega SST-1994m with no production modification.
Hybrid RANS/LES: No Hybrid RANS/LES
Mach number: 0.21.
Angle of attack (AoA): 3 deg, and angle of sideslip (AoS): 0 deg.
Reynolds number: 1.28186e+07. Reference length 2.62.
No restart solution, use the values at infinity (freestream).
Non-Dimensional simulation (V=Mach, Rho=1.0, T=1.0 at the farfield).
The reference area is 2.62 m^2.
The semi-span will be computed using the max y(3D) value.
WARNING: The current SST-1994m model is inconsistent with literature. We recommend using the SST-2003m model.
In SU2 v8 the 2003m model will become default, and the inconsistency will be fixed.
The reference length is 2.62 m.

Reference origin for moment evaluation is (1, 0, 0).
----------------- Physical Case Definition ( Zone 0 ) -------------------
Surface(s) where the force coefficients are evaluated: wall.
Compressible RANS equations.

Turbulence model: Menter's k-omega SST-1994m with no production modification.
Surface(s) plotted in the output file: wall.
Hybrid RANS/LES: No Hybrid RANS/LES
Input mesh file name: su2meshEx.su2
WARNING: The current SST-1994m model is inconsistent with literature. We recommend using the SST-2003m model.
In SU2 v8 the 2003m model will become default, and the inconsistency will be fixed.
Mach number: 0.21.

WARNING: The current SST-1994m model is inconsistent with literature. We recommend using the SST-2003m model.
In SU2 v8 the 2003m model will become default, and the inconsistency will be fixed.

Angle of attack (AoA): 3 deg, and angle of sideslip (AoS): 0 deg.
--------------- Space Numerical Integration ( Zone 0 ) ------------------

----------------- Physical Case Definition ( Zone 0 ) -------------------
Reynolds number: 1.28186e+07. Reference length 2.62.
Roe (with entropy fix = 1e-05) solver for the flow inviscid terms.
----------------- Physical Case Definition ( Zone 0 ) -------------------
Compressible RANS equations.
No restart solution, use the values at infinity (freestream).
Standard Roe without low-dissipation function.
Compressible RANS equations.
Turbulence model: Menter's k-omega SST-1994m with no production modification.
Non-Dimensional simulation (V=Mach, Rho=1.0, T=1.0 at the farfield).
Second order integration in space, with slope limiter.
Van Albada slope-limiting method implemented by edges.
Turbulence model: Menter's k-omega SST-1994m with no production modification.
Hybrid RANS/LES: No Hybrid RANS/LES
The reference area is 2.62 m^2.
Scalar upwind solver for the turbulence model.
Hybrid RANS/LES: No Hybrid RANS/LES
Mach number: 0.21.
The semi-span will be computed using the max y(3D) value.
First order integration in space.
Mach number: 0.21.
Angle of attack (AoA): 3 deg, and angle of sideslip (AoS): 0 deg.
The reference length is 2.62 m.
Average of gradients with correction (viscous flow terms).
Angle of attack (AoA): 3 deg, and angle of sideslip (AoS): 0 deg.
Reynolds number: 1.28186e+07. Reference length 2.62.
Reference origin for moment evaluation is (1, 0, 0).
Average of gradients with correction (viscous turbulence terms).
Reynolds number: 1.28186e+07. Reference length 2.62.
No restart solution, use the values at infinity (freestream).
Gradient for upwind reconstruction: Green-Gauss.
Surface(s) where the force coefficients are evaluated: wall.
No restart solution, use the values at infinity (freestream).
Non-Dimensional simulation (V=Mach, Rho=1.0, T=1.0 at the farfield).
Gradient for viscous and source terms: Green-Gauss.

Non-Dimensional simulation (V=Mach, Rho=1.0, T=1.0 at the farfield).
The reference area is 2.62 m^2.

Surface(s) plotted in the output file: wall.
The reference area is 2.62 m^2.
The semi-span will be computed using the max y(3D) value.
--------------- Time Numerical Integration  ( Zone 0 ) ------------------
Input mesh file name: su2meshEx.su2
The semi-span will be computed using the max y(3D) value.
The reference length is 2.62 m.
Local time stepping (steady state simulation).

The reference length is 2.62 m.
Reference origin for moment evaluation is (1, 0, 0).
Euler implicit method for the flow equations.
--------------- Space Numerical Integration ( Zone 0 ) ------------------
Reference origin for moment evaluation is (1, 0, 0).
Surface(s) where the force coefficients are evaluated: wall.
FGMRES is used for solving the linear system.
Roe (with entropy fix = 1e-05) solver for the flow inviscid terms.
Surface(s) where the force coefficients are evaluated: wall.

Using a ILU(0) preconditioning.
Standard Roe without low-dissipation function.

Surface(s) plotted in the output file: wall.
Convergence criteria of the linear solver: 0.2.
Second order integration in space, with slope limiter.
Van Albada slope-limiting method implemented by edges.
Surface(s) plotted in the output file: wall.
Input mesh file name: su2meshEx.su2
Max number of linear iterations: 4.
Scalar upwind solver for the turbulence model.
Input mesh file name: su2meshEx.su2

CFL adaptation. Factor down: 0.1, factor up: 1.2,
                lower limit: 25, upper limit: 1000,
                acceptable linear residual: 0.001.
First order integration in space.

--------------- Space Numerical Integration ( Zone 0 ) ------------------
Courant-Friedrichs-Lewy number:       25
Average of gradients with correction (viscous flow terms).
--------------- Space Numerical Integration ( Zone 0 ) ------------------
Roe (with entropy fix = 1e-05) solver for the flow inviscid terms.
Euler implicit time integration for the turbulence model.
Average of gradients with correction (viscous turbulence terms).
Roe (with entropy fix = 1e-05) solver for the flow inviscid terms.
Standard Roe without low-dissipation function.

Gradient for upwind reconstruction: Green-Gauss.
Standard Roe without low-dissipation function.
Second order integration in space, with slope limiter.
Van Albada slope-limiting method implemented by edges.
------------------ Convergence Criteria  ( Zone 0 ) ---------------------
Gradient for viscous and source terms: Green-Gauss.
Second order integration in space, with slope limiter.
Van Albada slope-limiting method implemented by edges.
Scalar upwind solver for the turbulence model.
Maximum number of solver subiterations: 50000.

Scalar upwind solver for the turbulence model.
First order integration in space.
Begin convergence monitoring at iteration 10.
--------------- Time Numerical Integration  ( Zone 0 ) ------------------
First order integration in space.
Average of gradients with correction (viscous flow terms).
Residual minimum value: 1e-11.5.
Local time stepping (steady state simulation).
Average of gradients with correction (viscous flow terms).
Average of gradients with correction (viscous turbulence terms).
Cauchy series min. value: 5e-07.
Euler implicit method for the flow equations.
Average of gradients with correction (viscous turbulence terms).
Gradient for upwind reconstruction: Green-Gauss.
Number of Cauchy elements: 500.
FGMRES is used for solving the linear system.
Gradient for upwind reconstruction: Green-Gauss.
Gradient for viscous and source terms: Green-Gauss.
Begin windowed time average at iteration 0.
Using a ILU(0) preconditioning.
Gradient for viscous and source terms: Green-Gauss.


Convergence criteria of the linear solver: 0.2.

--------------- Time Numerical Integration  ( Zone 0 ) ------------------
-------------------- Output Information ( Zone 0 ) ----------------------
Max number of linear iterations: 4.
--------------- Time Numerical Integration  ( Zone 0 ) ------------------
Local time stepping (steady state simulation).
File writing frequency: 
CFL adaptation. Factor down: 0.1, factor up: 1.2,
                lower limit: 25, upper limit: 1000,
                acceptable linear residual: 0.001.
Local time stepping (steady state simulation).
Euler implicit method for the flow equations.
+------------------------------------+
|                     File| Frequency|
+------------------------------------+
|                  RESTART|      3000|
|                 PARAVIEW|      3000|
|         SURFACE_PARAVIEW|      3000|
+------------------------------------+
Writing the convergence history file every 1 inner iterations.
Courant-Friedrichs-Lewy number:       25
Euler implicit method for the flow equations.
FGMRES is used for solving the linear system.
Writing the screen convergence history every 25 inner iterations.
Euler implicit time integration for the turbulence model.
FGMRES is used for solving the linear system.
Using a ILU(0) preconditioning.
The tabular file format is CSV (.csv).

Using a ILU(0) preconditioning.
Convergence criteria of the linear solver: 0.2.
Convergence history file name: history.
------------------ Convergence Criteria  ( Zone 0 ) ---------------------
Convergence criteria of the linear solver: 0.2.
Max number of linear iterations: 4.
Forces breakdown file name: forces_breakdown.dat.
Maximum number of solver subiterations: 50000.
Max number of linear iterations: 4.
CFL adaptation. Factor down: 0.1, factor up: 1.2,
                lower limit: 25, upper limit: 1000,
                acceptable linear residual: 0.001.
Surface file name: surface.
Begin convergence monitoring at iteration 10.
CFL adaptation. Factor down: 0.1, factor up: 1.2,
                lower limit: 25, upper limit: 1000,
                acceptable linear residual: 0.001.
Courant-Friedrichs-Lewy number:       25
Volume file name: vol_solution.
Residual minimum value: 1e-11.5.
Courant-Friedrichs-Lewy number:       25
Euler implicit time integration for the turbulence model.
Restart file name: restart.dat.
Cauchy series min. value: 5e-07.
Euler implicit time integration for the turbulence model.


Number of Cauchy elements: 500.

------------------ Convergence Criteria  ( Zone 0 ) ---------------------
------------- Config File Boundary Information ( Zone 0 ) ---------------
Begin windowed time average at iteration 0.
------------------ Convergence Criteria  ( Zone 0 ) ---------------------
Maximum number of solver subiterations: 50000.

-------------------- Output Information ( Zone 0 ) ----------------------
Maximum number of solver subiterations: 50000.
Begin convergence monitoring at iteration 10.
File writing frequency: 
Begin convergence monitoring at iteration 10.
+-----------------------------------------------------------------------+
|                        Marker Type|                        Marker Name|
+-----------------------------------------------------------------------+
|                          Far-field|                          far-field|
+-----------------------------------------------------------------------+
|                     Heat flux wall|                               wall|
+-----------------------------------------------------------------------+

Residual minimum value: 1e-11.5.
+------------------------------------+
|                     File| Frequency|
+------------------------------------+
|                  RESTART|      3000|
|                 PARAVIEW|      3000|
|         SURFACE_PARAVIEW|      3000|
+------------------------------------+
Writing the convergence history file every 1 inner iterations.
Residual minimum value: 1e-11.5.
-------------------- Output Preprocessing ( Zone 0 ) --------------------
Cauchy series min. value: 5e-07.
Writing the screen convergence history every 25 inner iterations.
Cauchy series min. value: 5e-07.
Number of Cauchy elements: 500.
The tabular file format is CSV (.csv).
Number of Cauchy elements: 500.
Begin windowed time average at iteration 0.
Convergence history file name: history.
Begin windowed time average at iteration 0.

Forces breakdown file name: forces_breakdown.dat.

-------------------- Output Information ( Zone 0 ) ----------------------
Surface file name: surface.
-------------------- Output Information ( Zone 0 ) ----------------------
File writing frequency: 
Volume file name: vol_solution.

WARNING: SURFACE_PRESSURE_DROP can only be computed for at least 2 surfaces (outlet, inlet, ...)

File writing frequency: 
Restart file name: restart.dat.
+------------------------------------+
|                     File| Frequency|
+------------------------------------+
|                  RESTART|      3000|
|                 PARAVIEW|      3000|
|         SURFACE_PARAVIEW|      3000|
+------------------------------------+
Writing the convergence history file every 1 inner iterations.

+------------------------------------+
|                     File| Frequency|
+------------------------------------+
|                  RESTART|      3000|
|                 PARAVIEW|      3000|
|         SURFACE_PARAVIEW|      3000|
+------------------------------------+
Writing the convergence history file every 1 inner iterations.
Writing the screen convergence history every 25 inner iterations.
------------- Config File Boundary Information ( Zone 0 ) ---------------
Writing the screen convergence history every 25 inner iterations.
The tabular file format is CSV (.csv).
The tabular file format is CSV (.csv).
  Info: Ignoring the following screen output fields:
  RMS_NU_TILDE
Convergence history file name: history.
Convergence history file name: history.
Screen output fields: INNER_ITER, RMS_DENSITY, RMS_MOMENTUM-X, RMS_MOMENTUM-Y, RMS_ENERGY, DRAG, LIFT, MOMENT_Z, LINSOL_RESIDUAL
+-----------------------------------------------------------------------+
|                        Marker Type|                        Marker Name|
+-----------------------------------------------------------------------+
|                          Far-field|                          far-field|
+-----------------------------------------------------------------------+
|                     Heat flux wall|                               wall|
+-----------------------------------------------------------------------+

Forces breakdown file name: forces_breakdown.dat.
Forces breakdown file name: forces_breakdown.dat.
History output group(s): ITER, RMS_RES, AERO_COEFF
-------------------- Output Preprocessing ( Zone 0 ) --------------------
Surface file name: surface.
Surface file name: surface.
Convergence field(s): LIFT
Volume file name: vol_solution.
Volume file name: vol_solution.
Warning: No (valid) fields chosen for time convergence monitoring. Time convergence monitoring inactive.
Restart file name: restart.dat.
Restart file name: restart.dat.


------------- Config File Boundary Information ( Zone 0 ) ---------------
------------- Config File Boundary Information ( Zone 0 ) ---------------

WARNING: SURFACE_PRESSURE_DROP can only be computed for at least 2 surfaces (outlet, inlet, ...)

  Info: Ignoring the following screen output fields:
  RMS_NU_TILDE
+-----------------------------------------------------------------------+
|                        Marker Type|                        Marker Name|
+-----------------------------------------------------------------------+
|                          Far-field|                          far-field|
+-----------------------------------------------------------------------+
|                     Heat flux wall|                               wall|
+-----------------------------------------------------------------------+

+-----------------------------------------------------------------------+
|                        Marker Type|                        Marker Name|
+-----------------------------------------------------------------------+
|                          Far-field|                          far-field|
+-----------------------------------------------------------------------+
|                     Heat flux wall|                               wall|
+-----------------------------------------------------------------------+

Screen output fields: INNER_ITER, RMS_DENSITY, RMS_MOMENTUM-X, RMS_MOMENTUM-Y, RMS_ENERGY, DRAG, LIFT, MOMENT_Z, LINSOL_RESIDUAL
-------------------- Output Preprocessing ( Zone 0 ) --------------------
-------------------- Output Preprocessing ( Zone 0 ) --------------------
History output group(s): ITER, RMS_RES, AERO_COEFF
Convergence field(s): LIFT
Warning: No (valid) fields chosen for time convergence monitoring. Time convergence monitoring inactive.

WARNING: SURFACE_PRESSURE_DROP can only be computed for at least 2 surfaces (outlet, inlet, ...)

Volume output fields: COORDINATES, SOLUTION, PRIMITIVE

WARNING: SURFACE_PRESSURE_DROP can only be computed for at least 2 surfaces (outlet, inlet, ...)


------------------- Geometry Preprocessing ( Zone 0 ) -------------------
  Info: Ignoring the following screen output fields:
  RMS_NU_TILDE
  Info: Ignoring the following screen output fields:
  RMS_NU_TILDE
Screen output fields: INNER_ITER, RMS_DENSITY, RMS_MOMENTUM-X, RMS_MOMENTUM-Y, RMS_ENERGY, DRAG, LIFT, MOMENT_Z, LINSOL_RESIDUAL
Screen output fields: INNER_ITER, RMS_DENSITY, RMS_MOMENTUM-X, RMS_MOMENTUM-Y, RMS_ENERGY, DRAG, LIFT, MOMENT_Z, LINSOL_RESIDUAL
History output group(s): ITER, RMS_RES, AERO_COEFF
Volume output fields: COORDINATES, SOLUTION, PRIMITIVE
History output group(s): ITER, RMS_RES, AERO_COEFF
Convergence field(s): LIFT

Convergence field(s): LIFT
Warning: No (valid) fields chosen for time convergence monitoring. Time convergence monitoring inactive.
------------------- Geometry Preprocessing ( Zone 0 ) -------------------
Warning: No (valid) fields chosen for time convergence monitoring. Time convergence monitoring inactive.
Volume output fields: COORDINATES, SOLUTION, PRIMITIVE
Volume output fields: COORDINATES, SOLUTION, PRIMITIVE


------------------- Geometry Preprocessing ( Zone 0 ) -------------------
------------------- Geometry Preprocessing ( Zone 0 ) -------------------
WARNING: The current SST-1994m model is inconsistent with literature. We recommend using the SST-2003m model.
In SU2 v8 the 2003m model will become default, and the inconsistency will be fixed.

-------------------------------------------------------------------------
|    ___ _   _ ___                                                      |
|   / __| | | |_  )   Release 7.5.1 "Blackbird"                         |
|   \__ \ |_| |/ /                                                      |
|   |___/\___//___|   Suite (Computational Fluid Dynamics Code)         |
|                                                                       |
-------------------------------------------------------------------------
| SU2 Project Website: https://su2code.github.io                        |
|                                                                       |
| The SU2 Project is maintained by the SU2 Foundation                   |
| (http://su2foundation.org)                                            |
-------------------------------------------------------------------------
| Copyright 2012-2023, SU2 Contributors                                 |
|                                                                       |
| SU2 is free software; you can redistribute it and/or                  |
| modify it under the terms of the GNU Lesser General Public            |
| License as published by the Free Software Foundation; either          |
| version 2.1 of the License, or (at your option) any later version.    |
|                                                                       |
| SU2 is distributed in the hope that it will be useful,                |
| but WITHOUT ANY WARRANTY; without even the implied warranty of        |
| MERCHANTABILITY or FITNESS FOR A PARTICULAR PURPOSE. See the GNU      |
| Lesser General Public License for more details.                       |
|                                                                       |
| You should have received a copy of the GNU Lesser General Public      |
| License along with SU2. If not, see <http://www.gnu.org/licenses/>.   |
-------------------------------------------------------------------------
WARNING: The current SST-1994m model is inconsistent with literature. We recommend using the SST-2003m model.
In SU2 v8 the 2003m model will become default, and the inconsistency will be fixed.

Parsing config file for zone 0
WARNING: The current SST-1994m model is inconsistent with literature. We recommend using the SST-2003m model.
In SU2 v8 the 2003m model will become default, and the inconsistency will be fixed.

----------------- Physical Case Definition ( Zone 0 ) -------------------
Compressible RANS equations.
Turbulence model: Menter's k-omega SST-1994m with no production modification.
Hybrid RANS/LES: No Hybrid RANS/LES
Mach number: 0.21.
Angle of attack (AoA): 3 deg, and angle of sideslip (AoS): 0 deg.
Reynolds number: 1.28186e+07. Reference length 2.62.
No restart solution, use the values at infinity (freestream).
Non-Dimensional simulation (V=Mach, Rho=1.0, T=1.0 at the farfield).
The reference area is 2.62 m^2.
The semi-span will be computed using the max y(3D) value.
The reference length is 2.62 m.
Reference origin for moment evaluation is (1, 0, 0).
Surface(s) where the force coefficients are evaluated: wall.

Surface(s) plotted in the output file: wall.
Input mesh file name: su2meshEx.su2

--------------- Space Numerical Integration ( Zone 0 ) ------------------
Roe (with entropy fix = 1e-05) solver for the flow inviscid terms.
Standard Roe without low-dissipation function.
Second order integration in space, with slope limiter.
Van Albada slope-limiting method implemented by edges.
Scalar upwind solver for the turbulence model.
First order integration in space.
Average of gradients with correction (viscous flow terms).
Average of gradients with correction (viscous turbulence terms).
Gradient for upwind reconstruction: Green-Gauss.
Gradient for viscous and source terms: Green-Gauss.

--------------- Time Numerical Integration  ( Zone 0 ) ------------------
Local time stepping (steady state simulation).
Euler implicit method for the flow equations.
FGMRES is used for solving the linear system.
Using a ILU(0) preconditioning.
Convergence criteria of the linear solver: 0.2.
Max number of linear iterations: 4.
CFL adaptation. Factor down: 0.1, factor up: 1.2,
                lower limit: 25, upper limit: 1000,
                acceptable linear residual: 0.001.
Courant-Friedrichs-Lewy number:       25
Euler implicit time integration for the turbulence model.

------------------ Convergence Criteria  ( Zone 0 ) ---------------------
Maximum number of solver subiterations: 50000.
Begin convergence monitoring at iteration 10.
Residual minimum value: 1e-11.5.
Cauchy series min. value: 5e-07.
Number of Cauchy elements: 500.
Begin windowed time average at iteration 0.

-------------------- Output Information ( Zone 0 ) ----------------------
File writing frequency: 
+------------------------------------+
|                     File| Frequency|
+------------------------------------+
|                  RESTART|      3000|
|                 PARAVIEW|      3000|
|         SURFACE_PARAVIEW|      3000|
+------------------------------------+
Writing the convergence history file every 1 inner iterations.
Writing the screen convergence history every 25 inner iterations.
The tabular file format is CSV (.csv).
Convergence history file name: history.
Forces breakdown file name: forces_breakdown.dat.
Surface file name: surface.
Volume file name: vol_solution.
Restart file name: restart.dat.

------------- Config File Boundary Information ( Zone 0 ) ---------------
+-----------------------------------------------------------------------+
|                        Marker Type|                        Marker Name|
+-----------------------------------------------------------------------+
|                          Far-field|                          far-field|
+-----------------------------------------------------------------------+
|                     Heat flux wall|                               wall|
+-----------------------------------------------------------------------+

-------------------- Output Preprocessing ( Zone 0 ) --------------------

WARNING: SURFACE_PRESSURE_DROP can only be computed for at least 2 surfaces (outlet, inlet, ...)

  Info: Ignoring the following screen output fields:
  RMS_NU_TILDE
Screen output fields: INNER_ITER, RMS_DENSITY, RMS_MOMENTUM-X, RMS_MOMENTUM-Y, RMS_ENERGY, DRAG, LIFT, MOMENT_Z, LINSOL_RESIDUAL
History output group(s): ITER, RMS_RES, AERO_COEFF
Convergence field(s): LIFT
Warning: No (valid) fields chosen for time convergence monitoring. Time convergence monitoring inactive.
Volume output fields: COORDINATES, SOLUTION, PRIMITIVE

------------------- Geometry Preprocessing ( Zone 0 ) -------------------
WARNING: The current SST-1994m model is inconsistent with literature. We recommend using the SST-2003m model.
In SU2 v8 the 2003m model will become default, and the inconsistency will be fixed.

-------------------------------------------------------------------------
|    ___ _   _ ___                                                      |
|   / __| | | |_  )   Release 7.5.1 "Blackbird"                         |
|   \__ \ |_| |/ /                                                      |
|   |___/\___//___|   Suite (Computational Fluid Dynamics Code)         |
|                                                                       |
-------------------------------------------------------------------------
| SU2 Project Website: https://su2code.github.io                        |
|                                                                       |
| The SU2 Project is maintained by the SU2 Foundation                   |
| (http://su2foundation.org)                                            |
-------------------------------------------------------------------------
| Copyright 2012-2023, SU2 Contributors                                 |
|                                                                       |
| SU2 is free software; you can redistribute it and/or                  |
| modify it under the terms of the GNU Lesser General Public            |
| License as published by the Free Software Foundation; either          |
| version 2.1 of the License, or (at your option) any later version.    |
|                                                                       |
| SU2 is distributed in the hope that it will be useful,                |
| but WITHOUT ANY WARRANTY; without even the implied warranty of        |
| MERCHANTABILITY or FITNESS FOR A PARTICULAR PURPOSE. See the GNU      |
| Lesser General Public License for more details.                       |
|                                                                       |
| You should have received a copy of the GNU Lesser General Public      |
| License along with SU2. If not, see <http://www.gnu.org/licenses/>.   |
-------------------------------------------------------------------------
WARNING: The current SST-1994m model is inconsistent with literature. We recommend using the SST-2003m model.
In SU2 v8 the 2003m model will become default, and the inconsistency will be fixed.

Parsing config file for zone 0
WARNING: The current SST-1994m model is inconsistent with literature. We recommend using the SST-2003m model.
In SU2 v8 the 2003m model will become default, and the inconsistency will be fixed.

----------------- Physical Case Definition ( Zone 0 ) -------------------
Compressible RANS equations.
Turbulence model: Menter's k-omega SST-1994m with no production modification.
Hybrid RANS/LES: No Hybrid RANS/LES
Mach number: 0.21.
Angle of attack (AoA): 3 deg, and angle of sideslip (AoS): 0 deg.
Reynolds number: 1.28186e+07. Reference length 2.62.
No restart solution, use the values at infinity (freestream).
Non-Dimensional simulation (V=Mach, Rho=1.0, T=1.0 at the farfield).
The reference area is 2.62 m^2.
The semi-span will be computed using the max y(3D) value.
The reference length is 2.62 m.
Reference origin for moment evaluation is (1, 0, 0).
Surface(s) where the force coefficients are evaluated: wall.

Surface(s) plotted in the output file: wall.
Input mesh file name: su2meshEx.su2

--------------- Space Numerical Integration ( Zone 0 ) ------------------
Roe (with entropy fix = 1e-05) solver for the flow inviscid terms.
Standard Roe without low-dissipation function.
Second order integration in space, with slope limiter.
Van Albada slope-limiting method implemented by edges.
Scalar upwind solver for the turbulence model.
First order integration in space.
Average of gradients with correction (viscous flow terms).
Average of gradients with correction (viscous turbulence terms).
Gradient for upwind reconstruction: Green-Gauss.
Gradient for viscous and source terms: Green-Gauss.

--------------- Time Numerical Integration  ( Zone 0 ) ------------------
Local time stepping (steady state simulation).
Euler implicit method for the flow equations.
FGMRES is used for solving the linear system.
Using a ILU(0) preconditioning.
Convergence criteria of the linear solver: 0.2.
Max number of linear iterations: 4.
CFL adaptation. Factor down: 0.1, factor up: 1.2,
                lower limit: 25, upper limit: 1000,
                acceptable linear residual: 0.001.
Courant-Friedrichs-Lewy number:       25
Euler implicit time integration for the turbulence model.

------------------ Convergence Criteria  ( Zone 0 ) ---------------------
Maximum number of solver subiterations: 50000.
Begin convergence monitoring at iteration 10.
Residual minimum value: 1e-11.5.
Cauchy series min. value: 5e-07.
Number of Cauchy elements: 500.
Begin windowed time average at iteration 0.

-------------------- Output Information ( Zone 0 ) ----------------------
File writing frequency: 
+------------------------------------+
|                     File| Frequency|
+------------------------------------+
|                  RESTART|      3000|
|                 PARAVIEW|      3000|
|         SURFACE_PARAVIEW|      3000|
+------------------------------------+
Writing the convergence history file every 1 inner iterations.
Writing the screen convergence history every 25 inner iterations.
The tabular file format is CSV (.csv).
Convergence history file name: history.
Forces breakdown file name: forces_breakdown.dat.
Surface file name: surface.
Volume file name: vol_solution.
Restart file name: restart.dat.

------------- Config File Boundary Information ( Zone 0 ) ---------------
+-----------------------------------------------------------------------+
|                        Marker Type|                        Marker Name|
+-----------------------------------------------------------------------+
|                          Far-field|                          far-field|
+-----------------------------------------------------------------------+
|                     Heat flux wall|                               wall|
+-----------------------------------------------------------------------+

-------------------- Output Preprocessing ( Zone 0 ) --------------------

WARNING: SURFACE_PRESSURE_DROP can only be computed for at least 2 surfaces (outlet, inlet, ...)

  Info: Ignoring the following screen output fields:
  RMS_NU_TILDE
Screen output fields: INNER_ITER, RMS_DENSITY, RMS_MOMENTUM-X, RMS_MOMENTUM-Y, RMS_ENERGY, DRAG, LIFT, MOMENT_Z, LINSOL_RESIDUAL
History output group(s): ITER, RMS_RES, AERO_COEFF
Convergence field(s): LIFT
Warning: No (valid) fields chosen for time convergence monitoring. Time convergence monitoring inactive.
Volume output fields: COORDINATES, SOLUTION, PRIMITIVE

------------------- Geometry Preprocessing ( Zone 0 ) -------------------
WARNING: The current SST-1994m model is inconsistent with literature. We recommend using the SST-2003m model.
In SU2 v8 the 2003m model will become default, and the inconsistency will be fixed.

-------------------------------------------------------------------------
|    ___ _   _ ___                                                      |
|   / __| | | |_  )   Release 7.5.1 "Blackbird"                         |
|   \__ \ |_| |/ /                                                      |
|   |___/\___//___|   Suite (Computational Fluid Dynamics Code)         |
|                                                                       |
-------------------------------------------------------------------------
| SU2 Project Website: https://su2code.github.io                        |
|                                                                       |
| The SU2 Project is maintained by the SU2 Foundation                   |
| (http://su2foundation.org)                                            |
-------------------------------------------------------------------------
| Copyright 2012-2023, SU2 Contributors                                 |
|                                                                       |
| SU2 is free software; you can redistribute it and/or                  |
| modify it under the terms of the GNU Lesser General Public            |
| License as published by the Free Software Foundation; either          |
| version 2.1 of the License, or (at your option) any later version.    |
|                                                                       |
| SU2 is distributed in the hope that it will be useful,                |
| but WITHOUT ANY WARRANTY; without even the implied warranty of        |
| MERCHANTABILITY or FITNESS FOR A PARTICULAR PURPOSE. See the GNU      |
| Lesser General Public License for more details.                       |
|                                                                       |
| You should have received a copy of the GNU Lesser General Public      |
| License along with SU2. If not, see <http://www.gnu.org/licenses/>.   |
-------------------------------------------------------------------------
WARNING: The current SST-1994m model is inconsistent with literature. We recommend using the SST-2003m model.
In SU2 v8 the 2003m model will become default, and the inconsistency will be fixed.

Parsing config file for zone 0
WARNING: The current SST-1994m model is inconsistent with literature. We recommend using the SST-2003m model.
In SU2 v8 the 2003m model will become default, and the inconsistency will be fixed.

----------------- Physical Case Definition ( Zone 0 ) -------------------
Compressible RANS equations.
Turbulence model: Menter's k-omega SST-1994m with no production modification.
Hybrid RANS/LES: No Hybrid RANS/LES
Mach number: 0.21.
Angle of attack (AoA): 3 deg, and angle of sideslip (AoS): 0 deg.
Reynolds number: 1.28186e+07. Reference length 2.62.
No restart solution, use the values at infinity (freestream).
Non-Dimensional simulation (V=Mach, Rho=1.0, T=1.0 at the farfield).
The reference area is 2.62 m^2.
The semi-span will be computed using the max y(3D) value.
The reference length is 2.62 m.
Reference origin for moment evaluation is (1, 0, 0).
Surface(s) where the force coefficients are evaluated: wall.

Surface(s) plotted in the output file: wall.
Input mesh file name: su2meshEx.su2

--------------- Space Numerical Integration ( Zone 0 ) ------------------
Roe (with entropy fix = 1e-05) solver for the flow inviscid terms.
Standard Roe without low-dissipation function.
Second order integration in space, with slope limiter.
Van Albada slope-limiting method implemented by edges.
Scalar upwind solver for the turbulence model.
First order integration in space.
Average of gradients with correction (viscous flow terms).
Average of gradients with correction (viscous turbulence terms).
Gradient for upwind reconstruction: Green-Gauss.
Gradient for viscous and source terms: Green-Gauss.

--------------- Time Numerical Integration  ( Zone 0 ) ------------------
Local time stepping (steady state simulation).
Euler implicit method for the flow equations.
FGMRES is used for solving the linear system.
Using a ILU(0) preconditioning.
Convergence criteria of the linear solver: 0.2.
Max number of linear iterations: 4.
CFL adaptation. Factor down: 0.1, factor up: 1.2,
                lower limit: 25, upper limit: 1000,
                acceptable linear residual: 0.001.
Courant-Friedrichs-Lewy number:       25
Euler implicit time integration for the turbulence model.

------------------ Convergence Criteria  ( Zone 0 ) ---------------------
Maximum number of solver subiterations: 50000.
Begin convergence monitoring at iteration 10.
Residual minimum value: 1e-11.5.
Cauchy series min. value: 5e-07.
Number of Cauchy elements: 500.
Begin windowed time average at iteration 0.

-------------------- Output Information ( Zone 0 ) ----------------------
File writing frequency: 
+------------------------------------+
|                     File| Frequency|
+------------------------------------+
|                  RESTART|      3000|
|                 PARAVIEW|      3000|
|         SURFACE_PARAVIEW|      3000|
+------------------------------------+
Writing the convergence history file every 1 inner iterations.
Writing the screen convergence history every 25 inner iterations.
The tabular file format is CSV (.csv).
Convergence history file name: history.
Forces breakdown file name: forces_breakdown.dat.
Surface file name: surface.
Volume file name: vol_solution.
Restart file name: restart.dat.

------------- Config File Boundary Information ( Zone 0 ) ---------------
+-----------------------------------------------------------------------+
|                        Marker Type|                        Marker Name|
+-----------------------------------------------------------------------+
|                          Far-field|                          far-field|
+-----------------------------------------------------------------------+
|                     Heat flux wall|                               wall|
+-----------------------------------------------------------------------+

-------------------- Output Preprocessing ( Zone 0 ) --------------------

WARNING: SURFACE_PRESSURE_DROP can only be computed for at least 2 surfaces (outlet, inlet, ...)

  Info: Ignoring the following screen output fields:
  RMS_NU_TILDE
Screen output fields: INNER_ITER, RMS_DENSITY, RMS_MOMENTUM-X, RMS_MOMENTUM-Y, RMS_ENERGY, DRAG, LIFT, MOMENT_Z, LINSOL_RESIDUAL
History output group(s): ITER, RMS_RES, AERO_COEFF
Convergence field(s): LIFT
Warning: No (valid) fields chosen for time convergence monitoring. Time convergence monitoring inactive.
Volume output fields: COORDINATES, SOLUTION, PRIMITIVE

------------------- Geometry Preprocessing ( Zone 0 ) -------------------
Two dimensional problem.
82048 grid points.
109860 volume elements.
Two dimensional problem.
82048 grid points.
109860 volume elements.
Two dimensional problem.
82048 grid points.
109860 volume elements.
2 surface markers.
76 boundary elements in index 0 (Marker = far-field).
723 boundary elements in index 1 (Marker = wall).
Two dimensional problem.
82048 grid points.
109860 volume elements.
2 surface markers.
76 boundary elements in index 0 (Marker = far-field).
723 boundary elements in index 1 (Marker = wall).
Two dimensional problem.
82048 grid points.
109860 volume elements.
2 surface markers.
76 boundary elements in index 0 (Marker = far-field).
723 boundary elements in index 1 (Marker = wall).
Two dimensional problem.
82048 grid points.
109860 volume elements.
2 surface markers.
76 boundary elements in index 0 (Marker = far-field).
723 boundary elements in index 1 (Marker = wall).
2 surface markers.
76 boundary elements in index 0 (Marker = far-field).
723 boundary elements in index 1 (Marker = wall).
Two dimensional problem.
82048 grid points.
109860 volume elements.
2 surface markers.
76 boundary elements in index 0 (Marker = far-field).
723 boundary elements in index 1 (Marker = wall).
2 surface markers.
76 boundary elements in index 0 (Marker = far-field).
723 boundary elements in index 1 (Marker = wall).
56421 triangles.
53439 quadrilaterals.
56421 triangles.
53439 quadrilaterals.
56421 triangles.
53439 quadrilaterals.
56421 triangles.
53439 quadrilaterals.
56421 triangles.
53439 quadrilaterals.
Setting point connectivity.
Setting point connectivity.
Setting point connectivity.
Setting point connectivity.
56421 triangles.
53439 quadrilaterals.
Setting point connectivity.
56421 triangles.
53439 quadrilaterals.
Setting point connectivity.
Setting point connectivity.
Renumbering points (Reverse Cuthill McKee Ordering).
Renumbering points (Reverse Cuthill McKee Ordering).
Renumbering points (Reverse Cuthill McKee Ordering).
Recomputing point connectivity.
Renumbering points (Reverse Cuthill McKee Ordering).
Recomputing point connectivity.
Recomputing point connectivity.
Recomputing point connectivity.
Renumbering points (Reverse Cuthill McKee Ordering).
Recomputing point connectivity.
Renumbering points (Reverse Cuthill McKee Ordering).
Renumbering points (Reverse Cuthill McKee Ordering).
Recomputing point connectivity.
Recomputing point connectivity.
Setting element connectivity.
Setting element connectivity.
Setting element connectivity.
Setting element connectivity.
Setting element connectivity.
Checking the numerical grid orientation.
All volume elements are correctly orientend.
All surface elements are correctly orientend.
Identifying edges and vertices.
Setting element connectivity.
Setting the control volume structure.
Checking the numerical grid orientation.
All volume elements are correctly orientend.
All surface elements are correctly orientend.
Identifying edges and vertices.
Checking the numerical grid orientation.
All volume elements are correctly orientend.
All surface elements are correctly orientend.
Identifying edges and vertices.
Setting the control volume structure.
Setting element connectivity.
Setting the control volume structure.
Checking the numerical grid orientation.
Area of the computational grid: 98846.9.
Searching for the closest normal neighbors to the surfaces.
Storing a mapping from global to local point index.
All volume elements are correctly orientend.
All surface elements are correctly orientend.
Identifying edges and vertices.
Setting the control volume structure.
Compute the surface curvature.
Area of the computational grid: 98846.9.
Max K: 1170.36. Mean K: 8.52212. Standard deviation K: 78.5888.
Searching for the closest normal neighbors to the surfaces.
Storing a mapping from global to local point index.
Checking for periodicity.
Computing mesh quality statistics for the dual control volumes.
Area of the computational grid: 98846.9.
Compute the surface curvature.
Searching for the closest normal neighbors to the surfaces.
Storing a mapping from global to local point index.
Max K: 1170.36. Mean K: 8.52212. Standard deviation K: 78.5888.
Checking for periodicity.
Computing mesh quality statistics for the dual control volumes.
Checking the numerical grid orientation.
All volume elements are correctly orientend.
All surface elements are correctly orientend.
Identifying edges and vertices.
Checking the numerical grid orientation.
Area of the computational grid: 98846.9.
Searching for the closest normal neighbors to the surfaces.
Storing a mapping from global to local point index.
Compute the surface curvature.
Max K: 1170.36. Mean K: 8.52212. Standard deviation K: 78.5888.
All volume elements are correctly orientend.
All surface elements are correctly orientend.
Identifying edges and vertices.
Setting the control volume structure.
Checking for periodicity.
Computing mesh quality statistics for the dual control volumes.
Setting the control volume structure.
Compute the surface curvature.
Max K: 1170.36. Mean K: 8.52212. Standard deviation K: 78.5888.
Checking for periodicity.
Computing mesh quality statistics for the dual control volumes.
Checking the numerical grid orientation.
Area of the computational grid: 98846.9.
Searching for the closest normal neighbors to the surfaces.
Storing a mapping from global to local point index.
All volume elements are correctly orientend.
All surface elements are correctly orientend.
Identifying edges and vertices.
+--------------------------------------------------------------+
|           Mesh Quality Metric|        Minimum|        Maximum|
+--------------------------------------------------------------+
|    Orthogonality Angle (deg.)|        78.3202|             90|
|     CV Face Area Aspect Ratio|        1.00125|          10910|
|           CV Sub-Volume Ratio|              1|        5.21203|
+--------------------------------------------------------------+
Finding max control volume width.
+--------------------------------------------------------------+
|           Mesh Quality Metric|        Minimum|        Maximum|
+--------------------------------------------------------------+
|    Orthogonality Angle (deg.)|        78.3202|             90|
|     CV Face Area Aspect Ratio|        1.00125|          10910|
|           CV Sub-Volume Ratio|              1|        5.21203|
+--------------------------------------------------------------+
Finding max control volume width.
Area of the computational grid: 98846.9.
Wetted area = 6.32542 m.
Area projection in the x-plane = 0.630114 m, y-plane = 2.96262 m.
Max. coordinate in the x-direction = 2.9339 m, y-direction = 0.165086 m.
Min. coordinate in the x-direction = 0 m, y-direction = -0.309055 m.
Computing wall distances.
Searching for the closest normal neighbors to the surfaces.
Storing a mapping from global to local point index.
Wetted area = 6.32542 m.
Area projection in the x-plane = 0.630114 m, y-plane = 2.96262 m.
Max. coordinate in the x-direction = 2.9339 m, y-direction = 0.165086 m.
Min. coordinate in the x-direction = 0 m, y-direction = -0.309055 m.
Computing wall distances.
Setting the control volume structure.
Compute the surface curvature.
Max K: 1170.36. Mean K: 8.52212. Standard deviation K: 78.5888.
Checking for periodicity.
Computing mesh quality statistics for the dual control volumes.
Compute the surface curvature.
Max K: 1170.36. Mean K: 8.52212. Standard deviation K: 78.5888.
+--------------------------------------------------------------+
|           Mesh Quality Metric|        Minimum|        Maximum|
+--------------------------------------------------------------+
|    Orthogonality Angle (deg.)|        78.3202|             90|
|     CV Face Area Aspect Ratio|        1.00125|          10910|
|           CV Sub-Volume Ratio|              1|        5.21203|
+--------------------------------------------------------------+
Finding max control volume width.
Checking for periodicity.
Computing mesh quality statistics for the dual control volumes.
Wetted area = 6.32542 m.
Area projection in the x-plane = 0.630114 m, y-plane = 2.96262 m.
Max. coordinate in the x-direction = 2.9339 m, y-direction = 0.165086 m.
Min. coordinate in the x-direction = 0 m, y-direction = -0.309055 m.
Computing wall distances.
+--------------------------------------------------------------+
|           Mesh Quality Metric|        Minimum|        Maximum|
+--------------------------------------------------------------+
|    Orthogonality Angle (deg.)|        78.3202|             90|
|     CV Face Area Aspect Ratio|        1.00125|          10910|
|           CV Sub-Volume Ratio|              1|        5.21203|
+--------------------------------------------------------------+
Finding max control volume width.
Area of the computational grid: 98846.9.
Wetted area = 6.32542 m.
Area projection in the x-plane = 0.630114 m, y-plane = 2.96262 m.
Max. coordinate in the x-direction = 2.9339 m, y-direction = 0.165086 m.
Min. coordinate in the x-direction = 0 m, y-direction = -0.309055 m.
Computing wall distances.
Searching for the closest normal neighbors to the surfaces.
Storing a mapping from global to local point index.
Compute the surface curvature.
Max K: 1170.36. Mean K: 8.52212. Standard deviation K: 78.5888.
Checking for periodicity.
Computing mesh quality statistics for the dual control volumes.
+--------------------------------------------------------------+
|           Mesh Quality Metric|        Minimum|        Maximum|
+--------------------------------------------------------------+
|    Orthogonality Angle (deg.)|        78.3202|             90|
|     CV Face Area Aspect Ratio|        1.00125|          10910|
|           CV Sub-Volume Ratio|              1|        5.21203|
+--------------------------------------------------------------+
Finding max control volume width.
+--------------------------------------------------------------+
|           Mesh Quality Metric|        Minimum|        Maximum|
+--------------------------------------------------------------+
|    Orthogonality Angle (deg.)|        78.3202|             90|
|     CV Face Area Aspect Ratio|        1.00125|          10910|
|           CV Sub-Volume Ratio|              1|        5.21203|
+--------------------------------------------------------------+
Finding max control volume width.
Wetted area = 6.32542 m.
Area projection in the x-plane = 0.630114 m, y-plane = 2.96262 m.
Max. coordinate in the x-direction = 2.9339 m, y-direction = 0.165086 m.
Min. coordinate in the x-direction = 0 m, y-direction = -0.309055 m.
Computing wall distances.
Wetted area = 6.32542 m.
Area projection in the x-plane = 0.630114 m, y-plane = 2.96262 m.
Max. coordinate in the x-direction = 2.9339 m, y-direction = 0.165086 m.
Min. coordinate in the x-direction = 0 m, y-direction = -0.309055 m.
Computing wall distances.

-------------------- Solver Preprocessing ( Zone 0 ) --------------------
Viscous flow: Computing pressure using the ideal gas law
based on the free-stream temperature and a density computed
from the Reynolds number.
Force coefficients computed using free-stream values.


-------------------- Solver Preprocessing ( Zone 0 ) --------------------
Viscous flow: Computing pressure using the ideal gas law
based on the free-stream temperature and a density computed
from the Reynolds number.
Force coefficients computed using free-stream values.

-- Models:
+------------------------------------------------------------------------------+
|          Viscosity Model|        Conductivity Model|              Fluid Model|
+------------------------------------------------------------------------------+
|               SUTHERLAND|          CONSTANT_PRANDTL|             STANDARD_AIR|
+------------------------------------------------------------------------------+
-- Fluid properties:
+------------------------------------------------------------------------------+
|                  Name|    Dim. value|    Ref. value|      Unit|Non-dim. value|
+------------------------------------------------------------------------------+
|        Ref. Viscosity|     1.716e-05|       416.883|   N.s/m^2|   4.11626e-08|
|      Sutherland Temp.|        273.15|        288.16|         K|      0.947911|
|     Sutherland Const.|         110.4|        288.16|         K|       0.38312|
+------------------------------------------------------------------------------+
|        Prandtl (Lam.)|             -|             -|         -|          0.72|
|       Prandtl (Turb.)|             -|             -|         -|           0.9|
+------------------------------------------------------------------------------+
|          Gas Constant|       287.058|       401.881|  N.m/kg.K|      0.714286|
|      Spec. Heat Ratio|             -|             -|         -|           1.4|
+------------------------------------------------------------------------------+
-- Initial and free-stream conditions:
+------------------------------------------------------------------------------+
|                  Name|    Dim. value|    Ref. value|      Unit|Non-dim. value|
+------------------------------------------------------------------------------+
|       Static Pressure|        101333|        141867|        Pa|      0.714286|
|               Density|       1.22504|       1.22504|    kg/m^3|             1|
|           Temperature|        288.16|        288.16|         K|             1|
|          Total Energy|        209369|        115806|   m^2/s^2|       1.80793|
|            Velocity-X|       71.3657|       340.303|       m/s|      0.209712|
|            Velocity-Y|       3.74012|       340.303|       m/s|     0.0109906|
|    Velocity Magnitude|       71.4636|       340.303|       m/s|          0.21|
+------------------------------------------------------------------------------+
|             Viscosity|   1.78935e-05|       416.883|   N.s/m^2|    4.2922e-08|
|          Conductivity|             -|        167537|   W/m^2.K|             -|
|     Turb. Kin. Energy|       19.1514|        115806|   m^2/s^2|   0.000165375|
|     Spec. Dissipation|        131116|       340.303|       1/s|       385.292|
+------------------------------------------------------------------------------+
|           Mach Number|             -|             -|         -|          0.21|
|       Reynolds Number|             -|             -|         -|   1.28186e+07|
+------------------------------------------------------------------------------+
Initialize Jacobian structure (Navier-Stokes). MG level: 0.
-- Models:
+------------------------------------------------------------------------------+
|          Viscosity Model|        Conductivity Model|              Fluid Model|
+------------------------------------------------------------------------------+
|               SUTHERLAND|          CONSTANT_PRANDTL|             STANDARD_AIR|
+------------------------------------------------------------------------------+
-- Fluid properties:
+------------------------------------------------------------------------------+
|                  Name|    Dim. value|    Ref. value|      Unit|Non-dim. value|
+------------------------------------------------------------------------------+
|        Ref. Viscosity|     1.716e-05|       416.883|   N.s/m^2|   4.11626e-08|
|      Sutherland Temp.|        273.15|        288.16|         K|      0.947911|
|     Sutherland Const.|         110.4|        288.16|         K|       0.38312|
+------------------------------------------------------------------------------+
|        Prandtl (Lam.)|             -|             -|         -|          0.72|
|       Prandtl (Turb.)|             -|             -|         -|           0.9|
+------------------------------------------------------------------------------+
|          Gas Constant|       287.058|       401.881|  N.m/kg.K|      0.714286|
|      Spec. Heat Ratio|             -|             -|         -|           1.4|
+------------------------------------------------------------------------------+
-- Initial and free-stream conditions:
+------------------------------------------------------------------------------+
|                  Name|    Dim. value|    Ref. value|      Unit|Non-dim. value|
+------------------------------------------------------------------------------+
|       Static Pressure|        101333|        141867|        Pa|      0.714286|
|               Density|       1.22504|       1.22504|    kg/m^3|             1|
|           Temperature|        288.16|        288.16|         K|             1|
|          Total Energy|        209369|        115806|   m^2/s^2|       1.80793|
|            Velocity-X|       71.3657|       340.303|       m/s|      0.209712|
|            Velocity-Y|       3.74012|       340.303|       m/s|     0.0109906|
|    Velocity Magnitude|       71.4636|       340.303|       m/s|          0.21|
+------------------------------------------------------------------------------+
|             Viscosity|   1.78935e-05|       416.883|   N.s/m^2|    4.2922e-08|
|          Conductivity|             -|        167537|   W/m^2.K|             -|
|     Turb. Kin. Energy|       19.1514|        115806|   m^2/s^2|   0.000165375|
|     Spec. Dissipation|        131116|       340.303|       1/s|       385.292|
+------------------------------------------------------------------------------+
|           Mach Number|             -|             -|         -|          0.21|
|       Reynolds Number|             -|             -|         -|   1.28186e+07|
+------------------------------------------------------------------------------+
Initialize Jacobian structure (Navier-Stokes). MG level: 0.
+--------------------------------------------------------------+
|           Mesh Quality Metric|        Minimum|        Maximum|
+--------------------------------------------------------------+
|    Orthogonality Angle (deg.)|        78.3202|             90|
|     CV Face Area Aspect Ratio|        1.00125|          10910|
|           CV Sub-Volume Ratio|              1|        5.21203|
+--------------------------------------------------------------+
Finding max control volume width.
Wetted area = 6.32542 m.
Area projection in the x-plane = 0.630114 m, y-plane = 2.96262 m.
Max. coordinate in the x-direction = 2.9339 m, y-direction = 0.165086 m.
Min. coordinate in the x-direction = 0 m, y-direction = -0.309055 m.
Computing wall distances.

-------------------- Solver Preprocessing ( Zone 0 ) --------------------
Viscous flow: Computing pressure using the ideal gas law
based on the free-stream temperature and a density computed
from the Reynolds number.
Force coefficients computed using free-stream values.

-- Models:
+------------------------------------------------------------------------------+
|          Viscosity Model|        Conductivity Model|              Fluid Model|
+------------------------------------------------------------------------------+
|               SUTHERLAND|          CONSTANT_PRANDTL|             STANDARD_AIR|
+------------------------------------------------------------------------------+
-- Fluid properties:
+------------------------------------------------------------------------------+
|                  Name|    Dim. value|    Ref. value|      Unit|Non-dim. value|
+------------------------------------------------------------------------------+
|        Ref. Viscosity|     1.716e-05|       416.883|   N.s/m^2|   4.11626e-08|
|      Sutherland Temp.|        273.15|        288.16|         K|      0.947911|
|     Sutherland Const.|         110.4|        288.16|         K|       0.38312|
+------------------------------------------------------------------------------+
|        Prandtl (Lam.)|             -|             -|         -|          0.72|
|       Prandtl (Turb.)|             -|             -|         -|           0.9|
+------------------------------------------------------------------------------+
|          Gas Constant|       287.058|       401.881|  N.m/kg.K|      0.714286|
|      Spec. Heat Ratio|             -|             -|         -|           1.4|
+------------------------------------------------------------------------------+
-- Initial and free-stream conditions:
+------------------------------------------------------------------------------+
|                  Name|    Dim. value|    Ref. value|      Unit|Non-dim. value|
+------------------------------------------------------------------------------+
|       Static Pressure|        101333|        141867|        Pa|      0.714286|
|               Density|       1.22504|       1.22504|    kg/m^3|             1|
|           Temperature|        288.16|        288.16|         K|             1|
|          Total Energy|        209369|        115806|   m^2/s^2|       1.80793|
|            Velocity-X|       71.3657|       340.303|       m/s|      0.209712|
|            Velocity-Y|       3.74012|       340.303|       m/s|     0.0109906|
|    Velocity Magnitude|       71.4636|       340.303|       m/s|          0.21|
+------------------------------------------------------------------------------+
|             Viscosity|   1.78935e-05|       416.883|   N.s/m^2|    4.2922e-08|
|          Conductivity|             -|        167537|   W/m^2.K|             -|
|     Turb. Kin. Energy|       19.1514|        115806|   m^2/s^2|   0.000165375|
|     Spec. Dissipation|        131116|       340.303|       1/s|       385.292|
+------------------------------------------------------------------------------+
|           Mach Number|             -|             -|         -|          0.21|
|       Reynolds Number|             -|             -|         -|   1.28186e+07|
+------------------------------------------------------------------------------+
Initialize Jacobian structure (Navier-Stokes). MG level: 0.

-------------------- Solver Preprocessing ( Zone 0 ) --------------------
Viscous flow: Computing pressure using the ideal gas law
based on the free-stream temperature and a density computed
from the Reynolds number.
Force coefficients computed using free-stream values.

-- Models:
+------------------------------------------------------------------------------+
|          Viscosity Model|        Conductivity Model|              Fluid Model|
+------------------------------------------------------------------------------+
|               SUTHERLAND|          CONSTANT_PRANDTL|             STANDARD_AIR|
+------------------------------------------------------------------------------+
-- Fluid properties:
+------------------------------------------------------------------------------+
|                  Name|    Dim. value|    Ref. value|      Unit|Non-dim. value|
+------------------------------------------------------------------------------+
|        Ref. Viscosity|     1.716e-05|       416.883|   N.s/m^2|   4.11626e-08|
|      Sutherland Temp.|        273.15|        288.16|         K|      0.947911|
|     Sutherland Const.|         110.4|        288.16|         K|       0.38312|
+------------------------------------------------------------------------------+
|        Prandtl (Lam.)|             -|             -|         -|          0.72|
|       Prandtl (Turb.)|             -|             -|         -|           0.9|
+------------------------------------------------------------------------------+
|          Gas Constant|       287.058|       401.881|  N.m/kg.K|      0.714286|
|      Spec. Heat Ratio|             -|             -|         -|           1.4|
+------------------------------------------------------------------------------+
-- Initial and free-stream conditions:
+------------------------------------------------------------------------------+
|                  Name|    Dim. value|    Ref. value|      Unit|Non-dim. value|
+------------------------------------------------------------------------------+
|       Static Pressure|        101333|        141867|        Pa|      0.714286|
|               Density|       1.22504|       1.22504|    kg/m^3|             1|
|           Temperature|        288.16|        288.16|         K|             1|
|          Total Energy|        209369|        115806|   m^2/s^2|       1.80793|
|            Velocity-X|       71.3657|       340.303|       m/s|      0.209712|
|            Velocity-Y|       3.74012|       340.303|       m/s|     0.0109906|
|    Velocity Magnitude|       71.4636|       340.303|       m/s|          0.21|
+------------------------------------------------------------------------------+
|             Viscosity|   1.78935e-05|       416.883|   N.s/m^2|    4.2922e-08|
|          Conductivity|             -|        167537|   W/m^2.K|             -|
|     Turb. Kin. Energy|       19.1514|        115806|   m^2/s^2|   0.000165375|
|     Spec. Dissipation|        131116|       340.303|       1/s|       385.292|
+------------------------------------------------------------------------------+
|           Mach Number|             -|             -|         -|          0.21|
|       Reynolds Number|             -|             -|         -|   1.28186e+07|
+------------------------------------------------------------------------------+
Initialize Jacobian structure (Navier-Stokes). MG level: 0.

-------------------- Solver Preprocessing ( Zone 0 ) --------------------
Viscous flow: Computing pressure using the ideal gas law
based on the free-stream temperature and a density computed
from the Reynolds number.
Force coefficients computed using free-stream values.

-- Models:
+------------------------------------------------------------------------------+
|          Viscosity Model|        Conductivity Model|              Fluid Model|
+------------------------------------------------------------------------------+
|               SUTHERLAND|          CONSTANT_PRANDTL|             STANDARD_AIR|
+------------------------------------------------------------------------------+
-- Fluid properties:
+------------------------------------------------------------------------------+
|                  Name|    Dim. value|    Ref. value|      Unit|Non-dim. value|
+------------------------------------------------------------------------------+
|        Ref. Viscosity|     1.716e-05|       416.883|   N.s/m^2|   4.11626e-08|
|      Sutherland Temp.|        273.15|        288.16|         K|      0.947911|
|     Sutherland Const.|         110.4|        288.16|         K|       0.38312|
+------------------------------------------------------------------------------+
|        Prandtl (Lam.)|             -|             -|         -|          0.72|
|       Prandtl (Turb.)|             -|             -|         -|           0.9|
+------------------------------------------------------------------------------+
|          Gas Constant|       287.058|       401.881|  N.m/kg.K|      0.714286|
|      Spec. Heat Ratio|             -|             -|         -|           1.4|
+------------------------------------------------------------------------------+
-- Initial and free-stream conditions:
+------------------------------------------------------------------------------+
|                  Name|    Dim. value|    Ref. value|      Unit|Non-dim. value|
+------------------------------------------------------------------------------+
|       Static Pressure|        101333|        141867|        Pa|      0.714286|
|               Density|       1.22504|       1.22504|    kg/m^3|             1|
|           Temperature|        288.16|        288.16|         K|             1|
|          Total Energy|        209369|        115806|   m^2/s^2|       1.80793|
|            Velocity-X|       71.3657|       340.303|       m/s|      0.209712|
|            Velocity-Y|       3.74012|       340.303|       m/s|     0.0109906|
|    Velocity Magnitude|       71.4636|       340.303|       m/s|          0.21|
+------------------------------------------------------------------------------+
|             Viscosity|   1.78935e-05|       416.883|   N.s/m^2|    4.2922e-08|
|          Conductivity|             -|        167537|   W/m^2.K|             -|
|     Turb. Kin. Energy|       19.1514|        115806|   m^2/s^2|   0.000165375|
|     Spec. Dissipation|        131116|       340.303|       1/s|       385.292|
+------------------------------------------------------------------------------+
|           Mach Number|             -|             -|         -|          0.21|
|       Reynolds Number|             -|             -|         -|   1.28186e+07|
+------------------------------------------------------------------------------+
Initialize Jacobian structure (Navier-Stokes). MG level: 0.

-------------------- Solver Preprocessing ( Zone 0 ) --------------------
Viscous flow: Computing pressure using the ideal gas law
based on the free-stream temperature and a density computed
from the Reynolds number.
Force coefficients computed using free-stream values.

-- Models:
+------------------------------------------------------------------------------+
|          Viscosity Model|        Conductivity Model|              Fluid Model|
+------------------------------------------------------------------------------+
|               SUTHERLAND|          CONSTANT_PRANDTL|             STANDARD_AIR|
+------------------------------------------------------------------------------+
-- Fluid properties:
+------------------------------------------------------------------------------+
|                  Name|    Dim. value|    Ref. value|      Unit|Non-dim. value|
+------------------------------------------------------------------------------+
|        Ref. Viscosity|     1.716e-05|       416.883|   N.s/m^2|   4.11626e-08|
|      Sutherland Temp.|        273.15|        288.16|         K|      0.947911|
|     Sutherland Const.|         110.4|        288.16|         K|       0.38312|
+------------------------------------------------------------------------------+
|        Prandtl (Lam.)|             -|             -|         -|          0.72|
|       Prandtl (Turb.)|             -|             -|         -|           0.9|
+------------------------------------------------------------------------------+
[...]
|        5000|   -9.344938|   -8.680474|   -9.207301|   -9.195501|    0.025734|    2.281350|    0.210101|   -0.560536|
|        5025|   -9.346034|   -8.685262|   -9.208740|   -9.184643|    0.025727|    2.281300|    0.210092|   -0.585808|
|        5050|   -9.294705|   -8.682996|   -9.150444|   -9.045887|    0.025717|    2.281234|    0.210077|   -0.506931|
|        5075|   -9.238954|   -8.660519|   -8.995236|   -8.947404|    0.025706|    2.281181|    0.210068|   -0.471622|
|        5100|   -9.307473|   -8.698462|   -9.209644|   -9.068111|    0.025708|    2.281138|    0.210059|   -0.638408|
|        5125|   -9.345814|   -8.702669|   -9.208903|   -9.164043|    0.025695|    2.281074|    0.210046|   -0.542674|
|        5150|   -9.170929|   -8.689132|   -9.070829|   -8.840290|    0.025685|    2.281023|    0.210036|   -0.484120|
|        5175|   -9.321056|   -8.715272|   -9.238302|   -9.091405|    0.025678|    2.280967|    0.210024|   -0.627612|
|        5200|   -9.383548|   -8.720459|   -9.248968|   -9.260930|    0.025673|    2.280921|    0.210016|   -0.499317|
|        5225|   -9.387746|   -8.722118|   -9.222508|   -9.246732|    0.025671|    2.280877|    0.210007|   -0.638181|
|        5250|   -9.398708|   -8.730512|   -9.254523|   -9.273251|    0.025662|    2.280831|    0.209998|   -0.611109|
|        5275|   -9.283262|   -8.715763|   -9.125208|   -9.000904|    0.025657|    2.280791|    0.209991|   -0.441180|
|        5300|   -9.392546|   -8.738303|   -9.248615|   -9.262436|    0.025649|    2.280739|    0.209980|   -0.687728|
|        5325|   -9.400690|   -8.742884|   -9.247549|   -9.284503|    0.025645|    2.280701|    0.209974|   -0.540420|
|        5350|   -9.331960|   -8.739339|   -9.186600|   -9.084426|    0.025636|    2.280663|    0.209965|   -0.550529|
|        5375|   -9.271193|   -8.737295|   -9.142607|   -8.973670|    0.025630|    2.280622|    0.209957|   -0.410230|
|        5400|   -9.250636|   -8.751275|   -9.208376|   -8.941952|    0.025628|    2.280588|    0.209952|   -0.562369|
|        5425|   -9.419601|   -8.758917|   -9.246897|   -9.316214|    0.025623|    2.280550|    0.209944|   -0.627387|
|        5450|   -9.327380|   -8.759084|   -9.219314|   -9.069306|    0.025612|    2.280506|    0.209935|   -0.467102|
|        5475|   -9.404502|   -8.767286|   -9.256038|   -9.258478|    0.025604|    2.280470|    0.209928|   -0.481649|
|        5500|   -9.424122|   -8.776298|   -9.286346|   -9.310823|    0.025598|    2.280434|    0.209920|   -0.529269|
|        5525|   -9.406263|   -8.778238|   -9.277432|   -9.240753|    0.025596|    2.280408|    0.209917|   -0.476966|
|        5550|   -9.447039|   -8.786615|   -9.299713|   -9.371975|    0.025591|    2.280377|    0.209910|   -0.585463|
|        5575|   -9.278293|   -8.759042|   -9.094206|   -8.973897|    0.025583|    2.280349|    0.209904|   -0.410508|
|        5600|   -9.392546|   -8.792208|   -9.283919|   -9.188412|    0.025583|    2.280326|    0.209901|   -0.549356|
|        5625|   -9.424454|   -8.796779|   -9.283707|   -9.279535|    0.025576|    2.280298|    0.209895|   -0.573713|
|        5650|   -9.361296|   -8.785009|   -9.178629|   -9.111179|    0.025570|    2.280271|    0.209890|   -0.425601|
|        5675|   -9.392792|   -8.800675|   -9.253473|   -9.183867|    0.025563|    2.280243|    0.209884|   -0.518717|
|        5700|   -9.284151|   -8.790614|   -9.172289|   -8.975202|    0.025557|    2.280224|    0.209880|   -0.323466|
|        5725|   -9.393294|   -8.807352|   -9.240498|   -9.172434|    0.025554|    2.280198|    0.209875|   -0.444310|
|        5750|   -9.443989|   -8.818345|   -9.299297|   -9.304440|    
0.025554|    2.280183|    0.209873|   -0.615303|
|        5775|   -9.464795|   -8.821363|   -9.296332|   -9.355194|    0.025550|    2.280165|    0.209869|   -0.585808|
|        5800|   -9.311833|   -8.817557|   -9.255031|   -9.007989|    0.025545|    2.280154|    0.209867|   -0.540235|
|        5825|   -9.459105|   -8.832548|   -9.325316|   -9.333517|    0.025538|    2.280132|    0.209862|   -0.627493|
|        5850|   -9.459038|   -8.835209|   -9.314063|   -9.332228|    0.025537|    2.280126|    0.209862|   -0.555245|
|        5867|   -9.405526|   -8.833801|   -9.300478|   -9.183708|    0.025531|    2.280118|    0.209860|   -0.473662|

----------------------------- Solver Exit -------------------------------
All convergence criteria satisfied.
+-----------------------------------------------------------------------+
|      Convergence Field     |     Value    |   Criterion  |  Converged |
+-----------------------------------------------------------------------+
|                  Cauchy[CL]|   4.99627e-07|       < 5e-07|         Yes|
+-----------------------------------------------------------------------+
-------------------------------------------------------------------------
0.025554|    2.280183|    0.209873|   -0.615303|
|        5775|   -9.464795|   -8.821363|   -9.296332|   -9.355194|    0.025550|    2.280165|    0.209869|   -0.585808|
|        5800|   -9.311833|   -8.817557|   -9.255031|   -9.007989|    0.025545|    2.280154|    0.209867|   -0.540235|
|        5825|   -9.459105|   -8.832548|   -9.325316|   -9.333517|    0.025538|    2.280132|    0.209862|   -0.627493|
|        5850|   -9.459038|   -8.835209|   -9.314063|   -9.332228|    0.025537|    2.280126|    0.209862|   -0.555245|
|        5867|   -9.405526|   -8.833801|   -9.300478|   -9.183708|    0.025531|    2.280118|    0.209860|   -0.473662|

----------------------------- Solver Exit -------------------------------
All convergence criteria satisfied.
+-----------------------------------------------------------------------+
|      Convergence Field     |     Value    |   Criterion  |  Converged |
+-----------------------------------------------------------------------+
|                  Cauchy[CL]|   4.99627e-07|       < 5e-07|         Yes|
+-----------------------------------------------------------------------+
-------------------------------------------------------------------------
0.025554|    2.280183|    0.209873|   -0.615303|
|        5775|   -9.464795|   -8.821363|   -9.296332|   -9.355194|    0.025550|    2.280165|    0.209869|   -0.585808|
|        5800|   -9.311833|   -8.817557|   -9.255031|   -9.007989|    0.025545|    2.280154|    0.209867|   -0.540235|
|        5825|   -9.459105|   -8.832548|   -9.325316|   -9.333517|    0.025538|    2.280132|    0.209862|   -0.627493|
|        5850|   -9.459038|   -8.835209|   -9.314063|   -9.332228|    0.025537|    2.280126|    0.209862|   -0.555245|
|        5867|   -9.405526|   -8.833801|   -9.300478|   -9.183708|    0.025531|    2.280118|    0.209860|   -0.473662|

----------------------------- Solver Exit -------------------------------
All convergence criteria satisfied.
+-----------------------------------------------------------------------+
|      Convergence Field     |     Value    |   Criterion  |  Converged |
+-----------------------------------------------------------------------+
|                  Cauchy[CL]|   4.99627e-07|       < 5e-07|         Yes|
+-----------------------------------------------------------------------+
-------------------------------------------------------------------------
0.025554|    2.280183|    0.209873|   -0.615303|
|        5775|   -9.464795|   -8.821363|   -9.296332|   -9.355194|    0.025550|    2.280165|    0.209869|   -0.585808|
|        5800|   -9.311833|   -8.817557|   -9.255031|   -9.007989|    0.025545|    2.280154|    0.209867|   -0.540235|
|        5825|   -9.459105|   -8.832548|   -9.325316|   -9.333517|    0.025538|    2.280132|    0.209862|   -0.627493|
|        5850|   -9.459038|   -8.835209|   -9.314063|   -9.332228|    0.025537|    2.280126|    0.209862|   -0.555245|
|        5867|   -9.405526|   -8.833801|   -9.300478|   -9.183708|    0.025531|    2.280118|    0.209860|   -0.473662|

----------------------------- Solver Exit -------------------------------
All convergence criteria satisfied.
+-----------------------------------------------------------------------+
|      Convergence Field     |     Value    |   Criterion  |  Converged |
+-----------------------------------------------------------------------+
|                  Cauchy[CL]|   4.99627e-07|       < 5e-07|         Yes|
+-----------------------------------------------------------------------+
-------------------------------------------------------------------------
0.025554|    2.280183|    0.209873|   -0.615303|
|        5775|   -9.464795|   -8.821363|   -9.296332|   -9.355194|    0.025550|    2.280165|    0.209869|   -0.585808|
|        5800|   -9.311833|   -8.817557|   -9.255031|   -9.007989|    0.025545|    2.280154|    0.209867|   -0.540235|
|        5825|   -9.459105|   -8.832548|   -9.325316|   -9.333517|    0.025538|    2.280132|    0.209862|   -0.627493|
|        5850|   -9.459038|   -8.835209|   -9.314063|   -9.332228|    0.025537|    2.280126|    0.209862|   -0.555245|
|        5867|   -9.405526|   -8.833801|   -9.300478|   -9.183708|    0.025531|    2.280118|    0.209860|   -0.473662|

----------------------------- Solver Exit -------------------------------
All convergence criteria satisfied.
+-----------------------------------------------------------------------+
|      Convergence Field     |     Value    |   Criterion  |  Converged |
+-----------------------------------------------------------------------+
|                  Cauchy[CL]|   4.99627e-07|       < 5e-07|         Yes|
+-----------------------------------------------------------------------+
-------------------------------------------------------------------------
+-----------------------------------------------------------------------+
|        File Writing Summary       |              Filename             |
+-----------------------------------------------------------------------+
|SU2 binary restart                 |restart.dat                        |
|Paraview                           |vol_solution.vtu                   |
|Paraview surface                   |surface.vtu                        |
+-----------------------------------------------------------------------+

------------------------- Solver Postprocessing -------------------------
Deleted CNumerics container.
+-----------------------------------------------------------------------+
|        File Writing Summary       |              Filename             |
+-----------------------------------------------------------------------+
|SU2 binary restart                 |restart.dat                        |
|Paraview                           |vol_solution.vtu                   |
|Paraview surface                   |surface.vtu                        |
+-----------------------------------------------------------------------+

------------------------- Solver Postprocessing -------------------------
Deleted CNumerics container.
Deleted CIntegration container.
Deleted CIntegration container.
+-----------------------------------------------------------------------+
|        File Writing Summary       |              Filename             |
+-----------------------------------------------------------------------+
|SU2 binary restart                 |restart.dat                        |
|Paraview                           |vol_solution.vtu                   |
|Paraview surface                   |surface.vtu                        |
+-----------------------------------------------------------------------+

------------------------- Solver Postprocessing -------------------------
Deleted CNumerics container.
0.025554|    2.280183|    0.209873|   -0.615303|
|        5775|   -9.464795|   -8.821363|   -9.296332|   -9.355194|    0.025550|    2.280165|    0.209869|   -0.585808|
|        5800|   -9.311833|   -8.817557|   -9.255031|   -9.007989|    0.025545|    2.280154|    0.209867|   -0.540235|
|        5825|   -9.459105|   -8.832548|   -9.325316|   -9.333517|    0.025538|    2.280132|    0.209862|   -0.627493|
|        5850|   -9.459038|   -8.835209|   -9.314063|   -9.332228|    0.025537|    2.280126|    0.209862|   -0.555245|
|        5867|   -9.405526|   -8.833801|   -9.300478|   -9.183708|    0.025531|    2.280118|    0.209860|   -0.473662|

----------------------------- Solver Exit -------------------------------
All convergence criteria satisfied.
Deleted CIntegration container.
+-----------------------------------------------------------------------+
|      Convergence Field     |     Value    |   Criterion  |  Converged |
+-----------------------------------------------------------------------+
|                  Cauchy[CL]|   4.99627e-07|       < 5e-07|         Yes|
+-----------------------------------------------------------------------+
-------------------------------------------------------------------------
Deleted CSolver container.
Deleted CIteration container.
Deleted CInterface container.
Deleted CSolver container.
Deleted CIteration container.
Deleted CInterface container.
Deleted CSolver container.
Deleted CIteration container.
Deleted CInterface container.
0.025554|    2.280183|    0.209873|   -0.615303|
|        5775|   -9.464795|   -8.821363|   -9.296332|   -9.355194|    0.025550|    2.280165|    0.209869|   -0.585808|
|        5800|   -9.311833|   -8.817557|   -9.255031|   -9.007989|    0.025545|    2.280154|    0.209867|   -0.540235|
|        5825|   -9.459105|   -8.832548|   -9.325316|   -9.333517|    0.025538|    2.280132|    0.209862|   -0.627493|
|        5850|   -9.459038|   -8.835209|   -9.314063|   -9.332228|    0.025537|    2.280126|    0.209862|   -0.555245|
|        5867|   -9.405526|   -8.833801|   -9.300478|   -9.183708|    0.025531|    2.280118|    0.209860|   -0.473662|

----------------------------- Solver Exit -------------------------------
All convergence criteria satisfied.
+-----------------------------------------------------------------------+
|      Convergence Field     |     Value    |   Criterion  |  Converged |
+-----------------------------------------------------------------------+
|                  Cauchy[CL]|   4.99627e-07|       < 5e-07|         Yes|
+-----------------------------------------------------------------------+
-------------------------------------------------------------------------
Deleted CGeometry container.
Deleted CFreeFormDefBox class.
Deleted CSurfaceMovement class.
Deleted CVolumetricMovement class.
Deleted CGeometry container.
Deleted CFreeFormDefBox class.
Deleted CSurfaceMovement class.
Deleted CVolumetricMovement class.
Deleted CGeometry container.
Deleted CFreeFormDefBox class.
Deleted CSurfaceMovement class.
Deleted CVolumetricMovement class.
+-----------------------------------------------------------------------+
|        File Writing Summary       |              Filename             |
+-----------------------------------------------------------------------+
|SU2 binary restart                 |restart.dat                        |
|Paraview                           |vol_solution.vtu                   |
|Paraview surface                   |surface.vtu                        |
+-----------------------------------------------------------------------+

------------------------- Solver Postprocessing -------------------------
Deleted CConfig container.
Deleted nInst container.
Deleted CConfig container.
Deleted nInst container.
Deleted CConfig container.
Deleted nInst container.
Deleted CNumerics container.
Deleted CIntegration container.
+-----------------------------------------------------------------------+
|        File Writing Summary       |              Filename             |
+-----------------------------------------------------------------------+
|SU2 binary restart                 |restart.dat                        |
|Paraview                           |vol_solution.vtu                   |
|Paraview surface                   |surface.vtu                        |
+-----------------------------------------------------------------------+

------------------------- Solver Postprocessing -------------------------
Deleted CNumerics container.
Deleted CIntegration container.
Deleted CSolver container.
Deleted CIteration container.
Deleted CInterface container.
Deleted COutput class.
Deleted COutput class.
Deleted COutput class.
-------------------------------------------------------------------------
-------------------------------------------------------------------------
-------------------------------------------------------------------------



------------------------- Exit Success (SU2_CFD) ------------------------
------------------------- Exit Success (SU2_CFD) ------------------------
------------------------- Exit Success (SU2_CFD) ------------------------



Deleted CSolver container.
Deleted CIteration container.
Deleted CInterface container.
Deleted CGeometry container.
Deleted CFreeFormDefBox class.
Deleted CSurfaceMovement class.
Deleted CVolumetricMovement class.
Deleted CConfig container.
Deleted nInst container.
Deleted COutput class.
-------------------------------------------------------------------------

------------------------- Exit Success (SU2_CFD) ------------------------

Deleted CGeometry container.
Deleted CFreeFormDefBox class.
Deleted CSurfaceMovement class.
Deleted CVolumetricMovement class.
Deleted CConfig container.
Deleted nInst container.
Deleted COutput class.
-------------------------------------------------------------------------

------------------------- Exit Success (SU2_CFD) ------------------------

+-----------------------------------------------------------------------+
|        File Writing Summary       |              Filename             |
+-----------------------------------------------------------------------+
|SU2 binary restart                 |restart.dat                        |
|Paraview                           |vol_solution.vtu                   |
|Paraview surface                   |surface.vtu                        |
+-----------------------------------------------------------------------+

------------------------- Solver Postprocessing -------------------------
Deleted CNumerics container.
Deleted CIntegration container.
+-----------------------------------------------------------------------+
|        File Writing Summary       |              Filename             |
+-----------------------------------------------------------------------+
|SU2 binary restart                 |restart.dat                        |
|Paraview                           |vol_solution.vtu                   |
|Paraview surface                   |surface.vtu                        |
+-----------------------------------------------------------------------+

------------------------- Solver Postprocessing -------------------------
Deleted CNumerics container.
Deleted CIntegration container.
Deleted CSolver container.
Deleted CIteration container.
Deleted CInterface container.
Deleted CSolver container.
Deleted CIteration container.
Deleted CInterface container.
Deleted CGeometry container.
Deleted CFreeFormDefBox class.
Deleted CSurfaceMovement class.
Deleted CVolumetricMovement class.
Deleted CConfig container.
Deleted nInst container.
Deleted COutput class.
-------------------------------------------------------------------------

------------------------- Exit Success (SU2_CFD) ------------------------

Deleted CGeometry container.
Deleted CFreeFormDefBox class.
Deleted CSurfaceMovement class.
Deleted CVolumetricMovement class.
Deleted CConfig container.
Deleted nInst container.
Deleted COutput class.
-------------------------------------------------------------------------

------------------------- Exit Success (SU2_CFD) ------------------------

