  
       XFOIL         Version 6.99
  
 Calculated polar for: Airfoil 74                                      
  
 1 1 Reynolds number fixed          Mach number fixed         
  
 xtrf =   1.000 (top)        1.000 (bottom)  
 Mach =   0.100     Re =     2.330 e 6     Ncrit =   1.000  1.000
  
   alpha    CL        CD       CDp       CM     Top_Xtr  Bot_Xtr  Top_Itr  Bot_Itr
  ------ -------- --------- --------- -------- -------- -------- -------- --------
   0.000   0.1610   0.00857   0.00066  -0.0375   0.2233   0.1619  68.0210 123.6688
