WARNING: The current SST-1994m model is inconsistent with literature. We recommend using the SST-2003m model.
In SU2 v8 the 2003m model will become default, and the inconsistency will be fixed.

-------------------------------------------------------------------------
|    ___ _   _ ___                                                      |
|   / __| | | |_  )   Release 7.4.0 "Blackbird"                         |
|   \__ \ |_| |/ /                                                      |
|   |___/\___//___|   Suite (Computational Fluid Dynamics Code)         |
|                                                                       |
-------------------------------------------------------------------------
| SU2 Project Website: https://su2code.github.io                        |
|                                                                       |
| The SU2 Project is maintained by the SU2 Foundation                   |
| (http://su2foundation.org)                                            |
-------------------------------------------------------------------------
| Copyright 2012-2022, SU2 Contributors                                 |
|                                                                       |
| SU2 is free software; you can redistribute it and/or                  |
| modify it under the terms of the GNU Lesser General Public            |
| License as published by the Free Software Foundation; either          |
| version 2.1 of the License, or (at your option) any later version.    |
|                                                                       |
| SU2 is distributed in the hope that it will be useful,                |
| but WITHOUT ANY WARRANTY; without even the implied warranty of        |
| MERCHANTABILITY or FITNESS FOR A PARTICULAR PURPOSE. See the GNU      |
| Lesser General Public License for more details.                       |
|                                                                       |
| You should have received a copy of the GNU Lesser General Public      |
| License along with SU2. If not, see <http://www.gnu.org/licenses/>.   |
-------------------------------------------------------------------------
WARNING: The current SST-1994m model is inconsistent with literature. We recommend using the SST-2003m model.
In SU2 v8 the 2003m model will become default, and the inconsistency will be fixed.

Parsing config file for zone 0
WARNING: The current SST-1994m model is inconsistent with literature. We recommend using the SST-2003m model.
In SU2 v8 the 2003m model will become default, and the inconsistency will be fixed.

----------------- Physical Case Definition ( Zone 0 ) -------------------
Compressible RANS equations.
Turbulence model: Menter's k-omega SST-1994m with no production modification.
Hybrid RANS/LES: No Hybrid RANS/LES
Mach number: 0.3.
Angle of attack (AoA): 0 deg, and angle of sideslip (AoS): 0 deg.
Reynolds number: 6.31153e+06. Reference length 2.62.
No restart solution, use the values at infinity (freestream).
Non-Dimensional simulation (V=Mach, Rho=1.0, T=1.0 at the farfield).
The reference area is 2.62 m^2.
The semi-span will be computed using the max y(3D) value.
The reference length is 2.62 m.
Reference origin for moment evaluation is (0, 0, 0).
Surface(s) where the force coefficients are evaluated: wall.

Surface(s) plotted in the output file: wall.
Input mesh file name: su2meshEx.su2

--------------- Space Numerical Integration ( Zone 0 ) ------------------
Roe (with entropy fix = 1e-05) solver for the flow inviscid terms.
Standard Roe without low-dissipation function.
Second order integration in space, with slope limiter.
Van Albada slope-limiting method implemented by edges.
Scalar upwind solver for the turbulence model.
First order integration in space.
Average of gradients with correction (viscous flow terms).
Average of gradients with correction (viscous turbulence terms).
Gradient for upwind reconstruction: Green-Gauss.
Gradient for viscous and source terms: Green-Gauss.

--------------- Time Numerical Integration  ( Zone 0 ) ------------------
Local time stepping (steady state simulation).
Euler implicit method for the flow equations.
FGMRES is used for solving the linear system.
Using a ILU(0) preconditioning.
Convergence criteria of the linear solver: 0.2.
Max number of linear iterations: 4.
CFL adaptation. Factor down: 0.1, factor up: 1.2,
                lower limit: 25, upper limit: 1000,
                acceptable linear residual: 0.001.
Courant-Friedrichs-Lewy number:       25
Euler implicit time integration for the turbulence model.

------------------ Convergence Criteria  ( Zone 0 ) ---------------------
Maximum number of solver subiterations: 25000.
Begin convergence monitoring at iteration 10.
Residual minimum value: 1e-11.5.
Cauchy series min. value: 5e-07.
Number of Cauchy elements: 500.
Begin windowed time average at iteration 0.

-------------------- Output Information ( Zone 0 ) ----------------------
File writing frequency: 
+------------------------------------+
|                     File| Frequency|
+------------------------------------+
|                  RESTART|       100|
|                 PARAVIEW|       100|
|         SURFACE_PARAVIEW|       100|
+------------------------------------+
Writing the convergence history file every 1 inner iterations.
Writing the screen convergence history every 25 inner iterations.
The tabular file format is CSV (.csv).
Convergence history file name: history.
Forces breakdown file name: forces_breakdown.dat.
Surface file name: surface.
Volume file name: vol_solution.
Restart file name: restart.dat.

------------- Config File Boundary Information ( Zone 0 ) ---------------
+-----------------------------------------------------------------------+
|                        Marker Type|                        Marker Name|
+-----------------------------------------------------------------------+
|                          Far-field|                          far-field|
+-----------------------------------------------------------------------+
|                     Heat flux wall|                               wall|
+-----------------------------------------------------------------------+

-------------------- Output Preprocessing ( Zone 0 ) --------------------

WARNING: SURFACE_PRESSURE_DROP can only be computed for at least 2 surfaces (outlet, inlet, ...)

  Info: Ignoring the following screen output fields:
  RMS_NU_TILDE
Screen output fields: INNER_ITER, RMS_DENSITY, RMS_MOMENTUM-X, RMS_MOMENTUM-Y, RMS_ENERGY, DRAG, LIFT, MOMENT_Z, LINSOL_RESIDUAL
History output group(s): ITER, RMS_RES, AERO_COEFF
Convergence field(s): LIFT
Warning: No (valid) fields chosen for time convergence monitoring. Time convergence monitoring inactive.
Volume output fields: COORDINATES, SOLUTION, PRIMITIVE

------------------- Geometry Preprocessing ( Zone 0 ) -------------------
Two dimensional problem.
66420 grid points before partitioning.
66015 volume elements before partitioning.
2 surface markers.
405 boundary elements in index 0 (Marker = far-field).
405 boundary elements in index 1 (Marker = wall).
Executing the partitioning functions.
Building the graph adjacency structure.
Calling ParMETIS... graph partitioning complete (858 edge cuts).
Distributing ParMETIS coloring.
Rebalancing vertices.
Rebalancing volume element connectivity.
Rebalancing markers and surface elements.
68136 vertices including ghost points. 
66869 interior elements including halo cells. 
66869 quadrilaterals.
Establishing MPI communication patterns.
Setting point connectivity.
Renumbering points (Reverse Cuthill McKee Ordering).
Recomputing point connectivity.
Setting element connectivity.
Checking the numerical grid orientation.
All volume elements are correctly orientend.
All surface elements are correctly orientend.
Identifying edges and vertices.
Setting the control volume structure.
Area of the computational grid: 172535.
Searching for the closest normal neighbors to the surfaces.
Storing a mapping from global to local point index.
Compute the surface curvature.
Max K: 1084.38. Mean K: 3.5904. Standard deviation K: 49.7608.
Checking for periodicity.
Computing mesh quality statistics for the dual control volumes.
+--------------------------------------------------------------+
|           Mesh Quality Metric|        Minimum|        Maximum|
+--------------------------------------------------------------+
|    Orthogonality Angle (deg.)|        82.7694|             90|
|     CV Face Area Aspect Ratio|        1.00252|        12980.1|
|           CV Sub-Volume Ratio|              1|        2.23331|
+--------------------------------------------------------------+
Finding max control volume width.
Communicating number of neighbors.
Wetted area = 5.32649 m.
Area projection in the x-plane = 0.29702 m, y-plane = 2.61984 m.
Max. coordinate in the x-direction = 2.62 m, y-direction = 0.165086 m.
Min. coordinate in the x-direction = 0 m, y-direction = -0.119236 m.
Computing wall distances.

-------------------- Solver Preprocessing ( Zone 0 ) --------------------
Viscous flow: Computing pressure using the ideal gas law
based on the free-stream temperature and a density computed
from the Reynolds number.
Force coefficients computed using free-stream values.

-- Models:
+------------------------------------------------------------------------------+
|          Viscosity Model|        Conductivity Model|              Fluid Model|
+------------------------------------------------------------------------------+
|               SUTHERLAND|          CONSTANT_PRANDTL|             STANDARD_AIR|
+------------------------------------------------------------------------------+
-- Fluid properties:
+------------------------------------------------------------------------------+
|                  Name|    Dim. value|    Ref. value|      Unit|Non-dim. value|
+------------------------------------------------------------------------------+
|        Ref. Viscosity|     1.716e-05|       115.582|   N.s/m^2|   1.48466e-07|
|      Sutherland Temp.|        273.15|       219.907|         K|       1.24212|
|     Sutherland Const.|         110.4|       219.907|         K|      0.502031|
+------------------------------------------------------------------------------+
|        Prandtl (Lam.)|             -|             -|         -|          0.72|
|       Prandtl (Turb.)|             -|             -|         -|           0.9|
+------------------------------------------------------------------------------+
|          Gas Constant|       287.058|       401.881|  N.m/kg.K|      0.714286|
|      Spec. Heat Ratio|             -|             -|         -|           1.4|
+------------------------------------------------------------------------------+
-- Initial and free-stream conditions:
+------------------------------------------------------------------------------+
|                  Name|    Dim. value|    Ref. value|      Unit|Non-dim. value|
+------------------------------------------------------------------------------+
|       Static Pressure|       24543.1|       34360.4|        Pa|      0.714286|
|               Density|      0.388796|      0.388796|    kg/m^3|             1|
|           Temperature|       219.907|       219.907|         K|             1|
|          Total Energy|        161822|       88376.4|   m^2/s^2|       1.83105|
|            Velocity-X|       89.1845|       297.282|       m/s|           0.3|
|            Velocity-Y|             0|       297.282|       m/s|             0|
|    Velocity Magnitude|       89.1845|       297.282|       m/s|           0.3|
+------------------------------------------------------------------------------+
|             Viscosity|   1.43939e-05|       115.582|   N.s/m^2|   1.24534e-07|
|          Conductivity|             -|       46450.2|   W/m^2.K|             -|
|     Turb. Kin. Energy|        29.827|       88376.4|   m^2/s^2|     0.0003375|
|     Spec. Dissipation|       80566.4|       297.282|       1/s|        271.01|
+------------------------------------------------------------------------------+
|           Mach Number|             -|             -|         -|           0.3|
|       Reynolds Number|             -|             -|         -|   6.31153e+06|
+------------------------------------------------------------------------------+
Initialize Jacobian structure (Navier-Stokes). MG level: 0.
Initialize Jacobian structure (SST model).

------------------- Numerics Preprocessing ( Zone 0 ) -------------------

----------------- Integration Preprocessing ( Zone 0 ) ------------------

------------------- Iteration Preprocessing ( Zone 0 ) ------------------
Euler/Navier-Stokes/RANS fluid iteration.

------------------------------ Begin Solver -----------------------------

Simulation Run using the Single-zone Driver
WARNING: SU2 was not compiled for an AVX-capable architecture.
+--------------------------------------------------------------------------------------------------------------------+
|  Inner_Iter|    rms[Rho]|   rms[RhoU]|   rms[RhoV]|   rms[RhoE]|          CD|          CL|         CMz|   LinSolRes|
+--------------------------------------------------------------------------------------------------------------------+
|           0|   -4.395186|  -15.584386|  -15.726903|   -3.989441|    0.411285|   -0.002075|    0.050291|   -1.155950|
|          25|   -4.869217|   -4.950643|   -4.923487|   -4.472799|    0.004038|    0.229209|    0.177018|   -0.886690|
|          50|   -4.988196|   -4.961832|   -5.013539|   -4.625531|    0.017371|    0.300405|    0.204256|   -0.794427|
|          75|   -5.278747|   -5.233446|   -5.386684|   -4.883666|    0.025413|    0.300555|    0.187317|   -0.637585|
|         100|   -5.881688|   -5.658458|   -5.900556|   -5.486650|    0.028792|    0.294561|    0.165218|   -0.718052|
+-----------------------------------------------------------------------+
|        File Writing Summary       |              Filename             |
+-----------------------------------------------------------------------+
|SU2 binary restart                 |restart.dat                        |
|Paraview                           |vol_solution.vtu                   |
|Paraview surface                   |surface.vtu                        |
+-----------------------------------------------------------------------+
+--------------------------------------------------------------------------------------------------------------------+
|  Inner_Iter|    rms[Rho]|   rms[RhoU]|   rms[RhoV]|   rms[RhoE]|          CD|          CL|         CMz|   LinSolRes|
+--------------------------------------------------------------------------------------------------------------------+
|         125|   -5.723267|   -5.676373|   -5.928956|   -5.324324|    0.020521|    0.318451|    0.167437|   -0.926632|
|         150|   -5.822180|   -5.695399|   -5.765329|   -5.452074|    0.017814|    0.345132|    0.180907|   -0.678442|
|         175|   -6.443331|   -6.173208|   -6.384068|   -6.060969|    0.014988|    0.355651|    0.187094|   -0.772480|
|         200|   -6.511905|   -6.285121|   -6.425772|   -6.138768|    0.013976|    0.354007|    0.186622|   -0.989261|
+-----------------------------------------------------------------------+
|        File Writing Summary       |              Filename             |
+-----------------------------------------------------------------------+
|SU2 binary restart                 |restart.dat                        |
|Paraview                           |vol_solution.vtu                   |
|Paraview surface                   |surface.vtu                        |
+-----------------------------------------------------------------------+
+--------------------------------------------------------------------------------------------------------------------+
|  Inner_Iter|    rms[Rho]|   rms[RhoU]|   rms[RhoV]|   rms[RhoE]|          CD|          CL|         CMz|   LinSolRes|
+--------------------------------------------------------------------------------------------------------------------+
|         225|   -6.512839|   -6.388818|   -6.498866|   -6.134555|    0.014368|    0.352271|    0.184068|   -0.622396|
|         250|   -6.675164|   -6.613277|   -6.931278|   -6.271828|    0.012630|    0.359219|    0.186917|   -0.568325|
|         275|   -6.903666|   -6.757241|   -6.958507|   -6.511100|    0.012886|    0.361601|    0.187945|   -0.612869|
|         300|   -7.071196|   -6.901058|   -7.101152|   -6.679604|    0.011843|    0.363795|    0.188998|   -0.833545|
+-----------------------------------------------------------------------+
|        File Writing Summary       |              Filename             |
+-----------------------------------------------------------------------+
|SU2 binary restart                 |restart.dat                        |
|Paraview                           |vol_solution.vtu                   |
|Paraview surface                   |surface.vtu                        |
+-----------------------------------------------------------------------+
+--------------------------------------------------------------------------------------------------------------------+
|  Inner_Iter|    rms[Rho]|   rms[RhoU]|   rms[RhoV]|   rms[RhoE]|          CD|          CL|         CMz|   LinSolRes|
+--------------------------------------------------------------------------------------------------------------------+
|         325|   -7.145544|   -6.927927|   -7.142275|   -6.755464|    0.011896|    0.363535|    0.188585|   -0.730293|
|         350|   -7.228220|   -7.029948|   -7.200275|   -6.844578|    0.011359|    0.365251|    0.189202|   -0.964939|
|         375|   -7.393434|   -7.077074|   -7.297436|   -7.020790|    0.011272|    0.366020|    0.189510|   -0.732969|
|         400|   -7.534952|   -7.210502|   -7.454774|   -7.160771|    0.010946|    0.366385|    0.189579|   -0.803772|
+-----------------------------------------------------------------------+
|        File Writing Summary       |              Filename             |
+-----------------------------------------------------------------------+
|SU2 binary restart                 |restart.dat                        |
|Paraview                           |vol_solution.vtu                   |
|Paraview surface                   |surface.vtu                        |
+-----------------------------------------------------------------------+
+--------------------------------------------------------------------------------------------------------------------+
|  Inner_Iter|    rms[Rho]|   rms[RhoU]|   rms[RhoV]|   rms[RhoE]|          CD|          CL|         CMz|   LinSolRes|
+--------------------------------------------------------------------------------------------------------------------+
|         425|   -7.645778|   -7.244647|   -7.617046|   -7.260933|    0.010867|    0.366725|    0.189636|   -0.715571|
|         450|   -7.751805|   -7.319769|   -7.848297|   -7.354411|    0.010632|    0.367196|    0.189830|   -0.801588|
|         475|   -7.847667|   -7.352179|   -8.050025|   -7.449544|    0.010575|    0.367221|    0.189768|   -0.816091|
|         500|   -7.964786|   -7.376683|   -8.123746|   -7.565126|    0.010385|    0.367586|    0.189901|   -0.674002|
+-----------------------------------------------------------------------+
|        File Writing Summary       |              Filename             |
+-----------------------------------------------------------------------+
|SU2 binary restart                 |restart.dat                        |
|Paraview                           |vol_solution.vtu                   |
|Paraview surface                   |surface.vtu                        |
+-----------------------------------------------------------------------+
+--------------------------------------------------------------------------------------------------------------------+
|  Inner_Iter|    rms[Rho]|   rms[RhoU]|   rms[RhoV]|   rms[RhoE]|          CD|          CL|         CMz|   LinSolRes|
+--------------------------------------------------------------------------------------------------------------------+
|         525|   -8.044634|   -7.403786|   -8.160868|   -7.658035|    0.010306|    0.367645|    0.189883|   -0.610431|
|         550|   -8.111434|   -7.407816|   -8.091810|   -7.733588|    0.010188|    0.367799|    0.189931|   -0.802046|
|         575|   -8.166410|   -7.429591|   -8.188437|   -7.793904|    0.010097|    0.367915|    0.189961|   -0.624265|
|         600|   -8.247019|   -7.444326|   -8.308528|   -7.866381|    0.009969|    0.368012|    0.189989|   -0.644529|
+-----------------------------------------------------------------------+
|        File Writing Summary       |              Filename             |
+-----------------------------------------------------------------------+
|SU2 binary restart                 |restart.dat                        |
|Paraview                           |vol_solution.vtu                   |
|Paraview surface                   |surface.vtu                        |
+-----------------------------------------------------------------------+
+--------------------------------------------------------------------------------------------------------------------+
|  Inner_Iter|    rms[Rho]|   rms[RhoU]|   rms[RhoV]|   rms[RhoE]|          CD|          CL|         CMz|   LinSolRes|
+--------------------------------------------------------------------------------------------------------------------+
|         625|   -8.269304|   -7.449582|   -8.323347|   -7.888793|    0.009901|    0.368113|    0.190039|   -0.868844|
|         650|   -8.334876|   -7.460694|   -8.326866|   -7.957386|    0.009840|    0.368102|    0.190002|   -0.758589|
|         675|   -8.305824|   -7.467159|   -8.310395|   -7.925368|    0.009801|    0.367950|    0.189889|   -0.905694|
|         700|   -8.308706|   -7.469993|   -8.290289|   -7.925599|    0.009767|    0.367673|    0.189702|   -0.815654|
+-----------------------------------------------------------------------+
|        File Writing Summary       |              Filename             |
+-----------------------------------------------------------------------+
|SU2 binary restart                 |restart.dat                        |
|Paraview                           |vol_solution.vtu                   |
|Paraview surface                   |surface.vtu                        |
+-----------------------------------------------------------------------+
+--------------------------------------------------------------------------------------------------------------------+
|  Inner_Iter|    rms[Rho]|   rms[RhoU]|   rms[RhoV]|   rms[RhoE]|          CD|          CL|         CMz|   LinSolRes|
+--------------------------------------------------------------------------------------------------------------------+
|         725|   -8.315301|   -7.464233|   -8.221594|   -7.932263|    0.009736|    0.367298|    0.189468|   -0.715288|
|         750|   -8.316817|   -7.451575|   -8.173474|   -7.934875|    0.009716|    0.366869|    0.189213|   -0.933167|
|         775|   -8.278405|   -7.433476|   -8.104242|   -7.894126|    0.009691|    0.366258|    0.188848|   -0.874664|
|         800|   -8.243435|   -7.408461|   -8.038758|   -7.857585|    0.009664|    0.365536|    0.188434|   -0.832144|
+-----------------------------------------------------------------------+
|        File Writing Summary       |              Filename             |
+-----------------------------------------------------------------------+
|SU2 binary restart                 |restart.dat                        |
|Paraview                           |vol_solution.vtu                   |
|Paraview surface                   |surface.vtu                        |
+-----------------------------------------------------------------------+
+--------------------------------------------------------------------------------------------------------------------+
|  Inner_Iter|    rms[Rho]|   rms[RhoU]|   rms[RhoV]|   rms[RhoE]|          CD|          CL|         CMz|   LinSolRes|
+--------------------------------------------------------------------------------------------------------------------+
|         825|   -8.176951|   -7.362096|   -7.943298|   -7.801400|    0.009622|    0.364193|    0.187690|   -0.596635|
|         850|   -8.149719|   -7.329427|   -7.908568|   -7.782922|    0.009598|    0.362759|    0.186920|   -0.589919|
|         875|   -8.117405|   -7.308620|   -7.879587|   -7.749391|    0.009561|    0.361342|    0.186156|   -0.767546|
|         900|   -8.098996|   -7.294924|   -7.855250|   -7.738080|    0.009545|    0.360155|    0.185549|   -0.765051|
+-----------------------------------------------------------------------+
|        File Writing Summary       |              Filename             |
+-----------------------------------------------------------------------+
|SU2 binary restart                 |restart.dat                        |
|Paraview                           |vol_solution.vtu                   |
|Paraview surface                   |surface.vtu                        |
+-----------------------------------------------------------------------+
+--------------------------------------------------------------------------------------------------------------------+
|  Inner_Iter|    rms[Rho]|   rms[RhoU]|   rms[RhoV]|   rms[RhoE]|          CD|          CL|         CMz|   LinSolRes|
+--------------------------------------------------------------------------------------------------------------------+
|         925|   -8.102143|   -7.282750|   -7.845638|   -7.754778|    0.009517|    0.358436|    0.184674|   -0.861542|
|         950|   -8.103783|   -7.283502|   -7.849180|   -7.762322|    0.009496|    0.356660|    0.183778|   -0.852226|
|         975|   -8.103252|   -7.295225|   -7.848904|   -7.760173|    0.009466|    0.354980|    0.182939|   -0.754970|
|        1000|   -8.095994|   -7.306603|   -7.858647|   -7.757614|    0.009455|    0.353708|    0.182312|   -0.760492|
+-----------------------------------------------------------------------+
|        File Writing Summary       |              Filename             |
+-----------------------------------------------------------------------+
|SU2 binary restart                 |restart.dat                        |
|Paraview                           |vol_solution.vtu                   |
|Paraview surface                   |surface.vtu                        |
+-----------------------------------------------------------------------+
+--------------------------------------------------------------------------------------------------------------------+
|  Inner_Iter|    rms[Rho]|   rms[RhoU]|   rms[RhoV]|   rms[RhoE]|          CD|          CL|         CMz|   LinSolRes|
+--------------------------------------------------------------------------------------------------------------------+
|        1025|   -8.113448|   -7.317889|   -7.865505|   -7.775740|    0.009435|    0.352466|    0.181710|   -0.750136|
|        1050|   -8.122753|   -7.328286|   -7.878537|   -7.785335|    0.009416|    0.351298|    0.181150|   -0.744389|
|        1075|   -8.138660|   -7.340057|   -7.896723|   -7.802654|    0.009400|    0.350119|    0.180585|   -0.727890|
|        1100|   -8.152541|   -7.354669|   -7.920975|   -7.814835|    0.009381|    0.349021|    0.180062|   -0.731505|
+-----------------------------------------------------------------------+
|        File Writing Summary       |              Filename             |
+-----------------------------------------------------------------------+
|SU2 binary restart                 |restart.dat                        |
|Paraview                           |vol_solution.vtu                   |
|Paraview surface                   |surface.vtu                        |
+-----------------------------------------------------------------------+
+--------------------------------------------------------------------------------------------------------------------+
|  Inner_Iter|    rms[Rho]|   rms[RhoU]|   rms[RhoV]|   rms[RhoE]|          CD|          CL|         CMz|   LinSolRes|
+--------------------------------------------------------------------------------------------------------------------+
|        1125|   -8.170646|   -7.372461|   -7.947352|   -7.834079|    0.009364|    0.347956|    0.179556|   -0.729764|
|        1150|   -8.189821|   -7.390560|   -7.963483|   -7.853096|    0.009345|    0.346926|    0.179068|   -0.719554|
|        1175|   -8.201143|   -7.408133|   -7.977323|   -7.861942|    0.009325|    0.345935|    0.178591|   -0.712928|
|        1200|   -8.219727|   -7.428757|   -7.991454|   -7.882102|    0.009308|    0.344985|    0.178141|   -0.718661|
+-----------------------------------------------------------------------+
|        File Writing Summary       |              Filename             |
+-----------------------------------------------------------------------+
|SU2 binary restart                 |restart.dat                        |
|Paraview                           |vol_solution.vtu                   |
|Paraview surface                   |surface.vtu                        |
+-----------------------------------------------------------------------+
+--------------------------------------------------------------------------------------------------------------------+
|  Inner_Iter|    rms[Rho]|   rms[RhoU]|   rms[RhoV]|   rms[RhoE]|          CD|          CL|         CMz|   LinSolRes|
+--------------------------------------------------------------------------------------------------------------------+
|        1225|   -8.238454|   -7.449610|   -8.004910|   -7.902774|    0.009288|    0.344078|    0.177709|   -0.718519|
|        1250|   -8.257805|   -7.469456|   -8.017399|   -7.921533|    0.009269|    0.343203|    0.177293|   -0.870261|
|        1275|   -8.270599|   -7.489109|   -8.031386|   -7.934357|    0.009251|    0.342351|    0.176886|   -0.850715|
|        1300|   -8.294237|   -7.509958|   -8.049156|   -7.961104|    0.009233|    0.341530|    0.176494|   -0.709177|
+-----------------------------------------------------------------------+
|        File Writing Summary       |              Filename             |
+-----------------------------------------------------------------------+
|SU2 binary restart                 |restart.dat                        |
|Paraview                           |vol_solution.vtu                   |
|Paraview surface                   |surface.vtu                        |
+-----------------------------------------------------------------------+
+--------------------------------------------------------------------------------------------------------------------+
|  Inner_Iter|    rms[Rho]|   rms[RhoU]|   rms[RhoV]|   rms[RhoE]|          CD|          CL|         CMz|   LinSolRes|
+--------------------------------------------------------------------------------------------------------------------+
|        1325|   -8.308654|   -7.530898|   -8.063642|   -7.974341|    0.009214|    0.340734|    0.176114|   -0.840222|
|        1350|   -8.344937|   -7.550232|   -8.082250|   -8.018921|    0.009196|    0.339966|    0.175747|   -0.700911|
|        1375|   -8.348428|   -7.569293|   -8.093657|   -8.017996|    0.009178|    0.339221|    0.175392|   -0.857214|
|        1400|   -8.382304|   -7.588532|   -8.112717|   -8.060493|    0.009161|    0.338494|    0.175043|   -0.707441|
+-----------------------------------------------------------------------+
|        File Writing Summary       |              Filename             |
+-----------------------------------------------------------------------+
|SU2 binary restart                 |restart.dat                        |
|Paraview                           |vol_solution.vtu                   |
|Paraview surface                   |surface.vtu                        |
+-----------------------------------------------------------------------+
+--------------------------------------------------------------------------------------------------------------------+
|  Inner_Iter|    rms[Rho]|   rms[RhoU]|   rms[RhoV]|   rms[RhoE]|          CD|          CL|         CMz|   LinSolRes|
+--------------------------------------------------------------------------------------------------------------------+
|        1425|   -8.395162|   -7.607604|   -8.126103|   -8.072968|    0.009143|    0.337789|    0.174704|   -0.866571|
|        1450|   -8.396135|   -7.625608|   -8.135577|   -8.069071|    0.009126|    0.337106|    0.174376|   -0.830020|
|        1475|   -8.426778|   -7.642727|   -8.151482|   -8.106189|    0.009110|    0.336446|    0.174059|   -0.859489|
|        1500|   -8.444977|   -7.660675|   -8.166602|   -8.128577|    0.009093|    0.335804|    0.173750|   -0.856688|
+-----------------------------------------------------------------------+
|        File Writing Summary       |              Filename             |
+-----------------------------------------------------------------------+
|SU2 binary restart                 |restart.dat                        |
|Paraview                           |vol_solution.vtu                   |
|Paraview surface                   |surface.vtu                        |
+-----------------------------------------------------------------------+
+--------------------------------------------------------------------------------------------------------------------+
|  Inner_Iter|    rms[Rho]|   rms[RhoU]|   rms[RhoV]|   rms[RhoE]|          CD|          CL|         CMz|   LinSolRes|
+--------------------------------------------------------------------------------------------------------------------+
|        1525|   -8.462803|   -7.678048|   -8.180898|   -8.148441|    0.009078|    0.335180|    0.173450|   -0.850590|
|        1550|   -8.478911|   -7.694004|   -8.194991|   -8.165991|    0.009062|    0.334572|    0.173157|   -0.847391|
|        1575|   -8.491768|   -7.710531|   -8.208961|   -8.179474|    0.009046|    0.333960|    0.172860|   -0.723367|
|        1600|   -8.502669|   -7.727458|   -8.222015|   -8.189029|    0.009031|    0.333369|    0.172574|   -0.823969|
+-----------------------------------------------------------------------+
|        File Writing Summary       |              Filename             |
+-----------------------------------------------------------------------+
|SU2 binary restart                 |restart.dat                        |
|Paraview                           |vol_solution.vtu                   |
|Paraview surface                   |surface.vtu                        |
+-----------------------------------------------------------------------+
+--------------------------------------------------------------------------------------------------------------------+
|  Inner_Iter|    rms[Rho]|   rms[RhoU]|   rms[RhoV]|   rms[RhoE]|          CD|          CL|         CMz|   LinSolRes|
+--------------------------------------------------------------------------------------------------------------------+
|        1625|   -8.518578|   -7.743440|   -8.236075|   -8.208158|    0.009016|    0.332812|    0.172304|   -0.822700|
|        1650|   -8.534357|   -7.758975|   -8.248085|   -8.225836|    0.009001|    0.332277|    0.172043|   -0.831010|
|        1675|   -8.544194|   -7.773864|   -8.259854|   -8.235942|    0.008988|    0.331757|    0.171791|   -0.832909|
|        1700|   -8.557570|   -7.787838|   -8.273338|   -8.249111|    0.008975|    0.331253|    0.171545|   -0.814223|
+-----------------------------------------------------------------------+
|        File Writing Summary       |              Filename             |
+-----------------------------------------------------------------------+
|SU2 binary restart                 |restart.dat                        |
|Paraview                           |vol_solution.vtu                   |
|Paraview surface                   |surface.vtu                        |
+-----------------------------------------------------------------------+
+--------------------------------------------------------------------------------------------------------------------+
|  Inner_Iter|    rms[Rho]|   rms[RhoU]|   rms[RhoV]|   rms[RhoE]|          CD|          CL|         CMz|   LinSolRes|
+--------------------------------------------------------------------------------------------------------------------+
|        1725|   -8.570741|   -7.801886|   -8.287408|   -8.263163|    0.008962|    0.330762|    0.171305|   -0.802535|
|        1750|   -8.585094|   -7.815617|   -8.298925|   -8.279757|    0.008950|    0.330286|    0.171072|   -0.804877|
|        1775|   -8.595803|   -7.829349|   -8.310185|   -8.290866|    0.008937|    0.329825|    0.170846|   -0.811216|
|        1800|   -8.605173|   -7.843464|   -8.322676|   -8.300245|    0.008926|    0.329374|    0.170625|   -0.809172|
+-----------------------------------------------------------------------+
|        File Writing Summary       |              Filename             |
+-----------------------------------------------------------------------+
|SU2 binary restart                 |restart.dat                        |
|Paraview                           |vol_solution.vtu                   |
|Paraview surface                   |surface.vtu                        |
+-----------------------------------------------------------------------+
+--------------------------------------------------------------------------------------------------------------------+
|  Inner_Iter|    rms[Rho]|   rms[RhoU]|   rms[RhoV]|   rms[RhoE]|          CD|          CL|         CMz|   LinSolRes|
+--------------------------------------------------------------------------------------------------------------------+
|        1825|   -8.618075|   -7.857044|   -8.334339|   -8.314317|    0.008914|    0.328937|    0.170411|   -0.792295|
|        1850|   -8.630150|   -7.869507|   -8.345997|   -8.327602|    0.008903|    0.328512|    0.170201|   -0.782638|
|        1875|   -8.641772|   -7.881680|   -8.357736|   -8.340529|    0.008892|    0.328097|    0.169997|   -0.785805|
|        1900|   -8.651707|   -7.894212|   -8.369271|   -8.350746|    0.008882|    0.327693|    0.169798|   -0.793483|
+-----------------------------------------------------------------------+
|        File Writing Summary       |              Filename             |
+-----------------------------------------------------------------------+
|SU2 binary restart                 |restart.dat                        |
|Paraview                           |vol_solution.vtu                   |
|Paraview surface                   |surface.vtu                        |
+-----------------------------------------------------------------------+
+--------------------------------------------------------------------------------------------------------------------+
|  Inner_Iter|    rms[Rho]|   rms[RhoU]|   rms[RhoV]|   rms[RhoE]|          CD|          CL|         CMz|   LinSolRes|
+--------------------------------------------------------------------------------------------------------------------+
|        1925|   -8.661688|   -7.906662|   -8.380045|   -8.361077|    0.008872|    0.327301|    0.169604|   -0.789949|
|        1950|   -8.672032|   -7.918366|   -8.390212|   -8.372218|    0.008862|    0.326917|    0.169414|   -0.774828|
|        1975|   -8.682220|   -7.929819|   -8.401021|   -8.383475|    0.008853|    0.326544|    0.169229|   -0.765827|
|        2000|   -8.693136|   -7.941674|   -8.412130|   -8.396096|    0.008843|    0.326179|    0.169048|   -0.771215|
+-----------------------------------------------------------------------+
|        File Writing Summary       |              Filename             |
+-----------------------------------------------------------------------+
|SU2 binary restart                 |restart.dat                        |
|Paraview                           |vol_solution.vtu                   |
|Paraview surface                   |surface.vtu                        |
+-----------------------------------------------------------------------+
+--------------------------------------------------------------------------------------------------------------------+
|  Inner_Iter|    rms[Rho]|   rms[RhoU]|   rms[RhoV]|   rms[RhoE]|          CD|          CL|         CMz|   LinSolRes|
+--------------------------------------------------------------------------------------------------------------------+
|        2025|   -8.702543|   -7.953266|   -8.422225|   -8.405691|    0.008834|    0.325823|    0.168871|   -0.779865|
|        2050|   -8.711573|   -7.964317|   -8.431800|   -8.414970|    0.008826|    0.325476|    0.168699|   -0.767841|
|        2075|   -8.720745|   -7.975393|   -8.441998|   -8.425163|    0.008817|    0.325137|    0.168530|   -0.756721|
|        2100|   -8.731389|   -7.986609|   -8.452293|   -8.437619|    0.008809|    0.324805|    0.168364|   -0.756303|
+-----------------------------------------------------------------------+
|        File Writing Summary       |              Filename             |
+-----------------------------------------------------------------------+
|SU2 binary restart                 |restart.dat                        |
|Paraview                           |vol_solution.vtu                   |
|Paraview surface                   |surface.vtu                        |
+-----------------------------------------------------------------------+
+--------------------------------------------------------------------------------------------------------------------+
|  Inner_Iter|    rms[Rho]|   rms[RhoU]|   rms[RhoV]|   rms[RhoE]|          CD|          CL|         CMz|   LinSolRes|
+--------------------------------------------------------------------------------------------------------------------+
|        2125|   -8.740384|   -7.997586|   -8.461901|   -8.447033|    0.008801|    0.324481|    0.168203|   -0.765398|
|        2150|   -8.748517|   -8.008234|   -8.470974|   -8.455232|    0.008794|    0.324164|    0.168045|   -0.759357|
|        2175|   -8.757228|   -8.018919|   -8.480483|   -8.464798|    0.008786|    0.323854|    0.167890|   -0.746737|
|        2200|   -8.767384|   -8.029676|   -8.490264|   -8.476817|    0.008779|    0.323551|    0.167738|   -0.744403|
+-----------------------------------------------------------------------+
|        File Writing Summary       |              Filename             |
+-----------------------------------------------------------------------+
|SU2 binary restart                 |restart.dat                        |
|Paraview                           |vol_solution.vtu                   |
|Paraview surface                   |surface.vtu                        |
+-----------------------------------------------------------------------+
+--------------------------------------------------------------------------------------------------------------------+
|  Inner_Iter|    rms[Rho]|   rms[RhoU]|   rms[RhoV]|   rms[RhoE]|          CD|          CL|         CMz|   LinSolRes|
+--------------------------------------------------------------------------------------------------------------------+
|        2225|   -8.775985|   -8.040219|   -8.499505|   -8.485886|    0.008772|    0.323255|    0.167590|   -0.753863|
|        2250|   -8.783782|   -8.050572|   -8.508320|   -8.493742|    0.008765|    0.322964|    0.167444|   -0.747091|
|        2275|   -8.792366|   -8.061036|   -8.517588|   -8.503372|    0.008759|    0.322680|    0.167302|   -0.735265|
|        2300|   -8.802229|   -8.071558|   -8.526898|   -8.515200|    0.008753|    0.322401|    0.167162|   -0.735519|
+-----------------------------------------------------------------------+
|        File Writing Summary       |              Filename             |
+-----------------------------------------------------------------------+
|SU2 binary restart                 |restart.dat                        |
|Paraview                           |vol_solution.vtu                   |
|Paraview surface                   |surface.vtu                        |
+-----------------------------------------------------------------------+
+--------------------------------------------------------------------------------------------------------------------+
|  Inner_Iter|    rms[Rho]|   rms[RhoU]|   rms[RhoV]|   rms[RhoE]|          CD|          CL|         CMz|   LinSolRes|
+--------------------------------------------------------------------------------------------------------------------+
|        2325|   -8.809940|   -8.081968|   -8.535395|   -8.522963|    0.008746|    0.322128|    0.167025|   -0.744797|
|        2350|   -8.817406|   -8.092287|   -8.543637|   -8.530671|    0.008740|    0.321861|    0.166891|   -0.732061|
|        2375|   -8.826177|   -8.102671|   -8.552522|   -8.540886|    0.008735|    0.321599|    0.166759|   -0.723230|
|        2400|   -8.835376|   -8.112993|   -8.561532|   -8.551473|    0.008729|    0.321343|    0.166631|   -0.729995|
+-----------------------------------------------------------------------+
|        File Writing Summary       |              Filename             |
+-----------------------------------------------------------------------+
|SU2 binary restart                 |restart.dat                        |
|Paraview                           |vol_solution.vtu                   |
|Paraview surface                   |surface.vtu                        |
+-----------------------------------------------------------------------+
+--------------------------------------------------------------------------------------------------------------------+
|  Inner_Iter|    rms[Rho]|   rms[RhoU]|   rms[RhoV]|   rms[RhoE]|          CD|          CL|         CMz|   LinSolRes|
+--------------------------------------------------------------------------------------------------------------------+
|        2425|   -8.842933|   -8.123184|   -8.570146|   -8.559040|    0.008724|    0.321091|    0.166504|   -0.730640|
|        2450|   -8.851203|   -8.133332|   -8.579102|   -8.568254|    0.008718|    0.320845|    0.166381|   -0.718451|
|        2475|   -8.860848|   -8.143528|   -8.588381|   -8.579912|    0.008713|    0.320604|    0.166260|   -0.718286|
|        2500|   -8.868230|   -8.153752|   -8.597091|   -8.587240|    0.008708|    0.320367|    0.166141|   -0.726665|
+-----------------------------------------------------------------------+
|        File Writing Summary       |              Filename             |
+-----------------------------------------------------------------------+
|SU2 binary restart                 |restart.dat                        |
|Paraview                           |vol_solution.vtu                   |
|Paraview surface                   |surface.vtu                        |
+-----------------------------------------------------------------------+
+--------------------------------------------------------------------------------------------------------------------+
|  Inner_Iter|    rms[Rho]|   rms[RhoU]|   rms[RhoV]|   rms[RhoE]|          CD|          CL|         CMz|   LinSolRes|
+--------------------------------------------------------------------------------------------------------------------+
|        2525|   -8.875925|   -8.163954|   -8.605567|   -8.595459|    0.008703|    0.320136|    0.166024|   -0.714032|
|        2550|   -8.885284|   -8.174181|   -8.614468|   -8.606882|    0.008699|    0.319908|    0.165910|   -0.709641|
|        2575|   -8.893033|   -8.184446|   -8.623117|   -8.615054|    0.008694|    0.319686|    0.165798|   -0.719519|
|        2600|   -8.900512|   -8.194690|   -8.631525|   -8.622866|    0.008690|    0.319468|    0.165689|   -0.708606|
+-----------------------------------------------------------------------+
|        File Writing Summary       |              Filename             |
+-----------------------------------------------------------------------+
|SU2 binary restart                 |restart.dat                        |
|Paraview                           |vol_solution.vtu                   |
|Paraview surface                   |surface.vtu                        |
+-----------------------------------------------------------------------+
+--------------------------------------------------------------------------------------------------------------------+
|  Inner_Iter|    rms[Rho]|   rms[RhoU]|   rms[RhoV]|   rms[RhoE]|          CD|          CL|         CMz|   LinSolRes|
+--------------------------------------------------------------------------------------------------------------------+
|        2625|   -8.909668|   -8.204927|   -8.640479|   -8.633959|    0.008685|    0.319254|    0.165582|   -0.702283|
|        2650|   -8.917881|   -8.215162|   -8.649434|   -8.643000|    0.008681|    0.319045|    0.165476|   -0.712070|
|        2675|   -8.925369|   -8.225404|   -8.658173|   -8.650773|    0.008677|    0.318839|    0.165373|   -0.703000|
|        2700|   -8.934524|   -8.235695|   -8.667362|   -8.661860|    0.008673|    0.318638|    0.165272|   -0.696356|
+-----------------------------------------------------------------------+
|        File Writing Summary       |              Filename             |
+-----------------------------------------------------------------------+
|SU2 binary restart                 |restart.dat                        |
|Paraview                           |vol_solution.vtu                   |
|Paraview surface                   |surface.vtu                        |
+-----------------------------------------------------------------------+
+--------------------------------------------------------------------------------------------------------------------+
|  Inner_Iter|    rms[Rho]|   rms[RhoU]|   rms[RhoV]|   rms[RhoE]|          CD|          CL|         CMz|   LinSolRes|
+--------------------------------------------------------------------------------------------------------------------+
|        2725|   -8.942868|   -8.245988|   -8.676403|   -8.671151|    0.008669|    0.318442|    0.165174|   -0.706049|
|        2750|   -8.950328|   -8.256297|   -8.685132|   -8.678932|    0.008666|    0.318249|    0.165077|   -0.696996|
|        2775|   -8.959589|   -8.266678|   -8.694326|   -8.690335|    0.008662|    0.318060|    0.164982|   -0.691331|
|        2800|   -8.967662|   -8.277055|   -8.703332|   -8.699161|    0.008659|    0.317875|    0.164889|   -0.700794|
+-----------------------------------------------------------------------+
|        File Writing Summary       |              Filename             |
+-----------------------------------------------------------------------+
|SU2 binary restart                 |restart.dat                        |
|Paraview                           |vol_solution.vtu                   |
|Paraview surface                   |surface.vtu                        |
+-----------------------------------------------------------------------+
+--------------------------------------------------------------------------------------------------------------------+
|  Inner_Iter|    rms[Rho]|   rms[RhoU]|   rms[RhoV]|   rms[RhoE]|          CD|          CL|         CMz|   LinSolRes|
+--------------------------------------------------------------------------------------------------------------------+
|        2825|   -8.975281|   -8.287426|   -8.712117|   -8.707349|    0.008655|    0.317693|    0.164798|   -0.690558|
|        2850|   -8.984818|   -8.297850|   -8.721462|   -8.719346|    0.008652|    0.317516|    0.164710|   -0.687067|
|        2875|   -8.992442|   -8.308292|   -8.730578|   -8.727289|    0.008649|    0.317342|    0.164622|   -0.694590|
|        2900|   -9.000529|   -8.318763|   -8.739715|   -8.736418|    0.008645|    0.317172|    0.164537|   -0.683909|
+-----------------------------------------------------------------------+
|        File Writing Summary       |              Filename             |
+-----------------------------------------------------------------------+
|SU2 binary restart                 |restart.dat                        |
|Paraview                           |vol_solution.vtu                   |
|Paraview surface                   |surface.vtu                        |
+-----------------------------------------------------------------------+
+--------------------------------------------------------------------------------------------------------------------+
|  Inner_Iter|    rms[Rho]|   rms[RhoU]|   rms[RhoV]|   rms[RhoE]|          CD|          CL|         CMz|   LinSolRes|
+--------------------------------------------------------------------------------------------------------------------+
|        2925|   -9.009923|   -8.329222|   -8.749287|   -8.748110|    0.008642|    0.317005|    0.164454|   -0.684390|
|        2950|   -9.017439|   -8.339738|   -8.758420|   -8.755918|    0.008639|    0.316842|    0.164372|   -0.686743|
|        2975|   -9.025919|   -8.350299|   -8.767808|   -8.765976|    0.008636|    0.316683|    0.164292|   -0.677812|
|        3000|   -9.034772|   -8.360875|   -8.777269|   -8.776597|    0.008634|    0.316527|    0.164214|   -0.685141|
+-----------------------------------------------------------------------+
|        File Writing Summary       |              Filename             |
+-----------------------------------------------------------------------+
|SU2 binary restart                 |restart.dat                        |
|Paraview                           |vol_solution.vtu                   |
|Paraview surface                   |surface.vtu                        |
+-----------------------------------------------------------------------+
+--------------------------------------------------------------------------------------------------------------------+
|  Inner_Iter|    rms[Rho]|   rms[RhoU]|   rms[RhoV]|   rms[RhoE]|          CD|          CL|         CMz|   LinSolRes|
+--------------------------------------------------------------------------------------------------------------------+
|        3025|   -9.042434|   -8.371459|   -8.786415|   -8.784875|    0.008631|    0.316374|    0.164138|   -0.678815|
|        3050|   -9.051823|   -8.382097|   -8.796058|   -8.796888|    0.008628|    0.316224|    0.164063|   -0.674554|
|        3075|   -9.059615|   -8.392740|   -8.805505|   -8.805303|    0.008626|    0.316078|    0.163990|   -0.681205|
|        3100|   -9.067824|   -8.403415|   -8.815009|   -8.814882|    0.008623|    0.315935|    0.163919|   -0.671709|
+-----------------------------------------------------------------------+
|        File Writing Summary       |              Filename             |
+-----------------------------------------------------------------------+
|SU2 binary restart                 |restart.dat                        |
|Paraview                           |vol_solution.vtu                   |
|Paraview surface                   |surface.vtu                        |
+-----------------------------------------------------------------------+
+--------------------------------------------------------------------------------------------------------------------+
|  Inner_Iter|    rms[Rho]|   rms[RhoU]|   rms[RhoV]|   rms[RhoE]|          CD|          CL|         CMz|   LinSolRes|
+--------------------------------------------------------------------------------------------------------------------+
|        3125|   -9.076914|   -8.414083|   -8.824833|   -8.826229|    0.008621|    0.315795|    0.163849|   -0.675465|
|        3150|   -9.084645|   -8.424788|   -8.834296|   -8.834688|    0.008618|    0.315658|    0.163780|   -0.672713|
|        3175|   -9.093826|   -8.435540|   -8.844129|   -8.846523|    0.008616|    0.315524|    0.163714|   -0.667860|
|        3200|   -9.101727|   -8.446293|   -8.853759|   -8.855348|    0.008614|    0.315393|    0.163648|   -0.674225|
+-----------------------------------------------------------------------+
|        File Writing Summary       |              Filename             |
+-----------------------------------------------------------------------+
|SU2 binary restart                 |restart.dat                        |
|Paraview                           |vol_solution.vtu                   |
|Paraview surface                   |surface.vtu                        |
+-----------------------------------------------------------------------+
+--------------------------------------------------------------------------------------------------------------------+
|  Inner_Iter|    rms[Rho]|   rms[RhoU]|   rms[RhoV]|   rms[RhoE]|          CD|          CL|         CMz|   LinSolRes|
+--------------------------------------------------------------------------------------------------------------------+
|        3225|   -9.109899|   -8.457092|   -8.863399|   -8.865075|    0.008612|    0.315264|    0.163584|   -0.665493|
|        3250|   -9.118813|   -8.467902|   -8.873296|   -8.876314|    0.008609|    0.315139|    0.163522|   -0.670278|
|        3275|   -9.126595|   -8.478720|   -8.882902|   -8.885112|    0.008607|    0.315017|    0.163461|   -0.665691|
|        3300|   -9.135806|   -8.489566|   -8.892938|   -8.897287|    0.008605|    0.314897|    0.163401|   -0.662742|
+-----------------------------------------------------------------------+
|        File Writing Summary       |              Filename             |
+-----------------------------------------------------------------------+
|SU2 binary restart                 |restart.dat                        |
|Paraview                           |vol_solution.vtu                   |
|Paraview surface                   |surface.vtu                        |
+-----------------------------------------------------------------------+
+--------------------------------------------------------------------------------------------------------------------+
|  Inner_Iter|    rms[Rho]|   rms[RhoU]|   rms[RhoV]|   rms[RhoE]|          CD|          CL|         CMz|   LinSolRes|
+--------------------------------------------------------------------------------------------------------------------+
|        3325|   -9.143501|   -8.500431|   -8.902692|   -8.905874|    0.008603|    0.314780|    0.163343|   -0.666243|
|        3350|   -9.152012|   -8.511338|   -8.912622|   -8.916653|    0.008601|    0.314665|    0.163286|   -0.659603|
|        3375|   -9.160367|   -8.522255|   -8.922549|   -8.926868|    0.008600|    0.314553|    0.163231|   -0.666159|
|        3400|   -9.168336|   -8.533192|   -8.932355|   -8.936462|    0.008598|    0.314444|    0.163176|   -0.658451|
+-----------------------------------------------------------------------+
|        File Writing Summary       |              Filename             |
+-----------------------------------------------------------------------+
|SU2 binary restart                 |restart.dat                        |
|Paraview                           |vol_solution.vtu                   |
|Paraview surface                   |surface.vtu                        |
+-----------------------------------------------------------------------+
+--------------------------------------------------------------------------------------------------------------------+
|  Inner_Iter|    rms[Rho]|   rms[RhoU]|   rms[RhoV]|   rms[RhoE]|          CD|          CL|         CMz|   LinSolRes|
+--------------------------------------------------------------------------------------------------------------------+
|        3425|   -9.177121|   -8.544129|   -8.942472|   -8.947932|    0.008596|    0.314337|    0.163123|   -0.661730|
|        3450|   -9.184870|   -8.555070|   -8.952313|   -8.957014|    0.008594|    0.314233|    0.163071|   -0.658020|
|        3475|   -9.193796|   -8.566034|   -8.962529|   -8.969086|    0.008593|    0.314130|    0.163021|   -0.656064|
|        3500|   -9.201444|   -8.577011|   -8.972442|   -8.977967|    0.008591|    0.314031|    0.162971|   -0.657633|
+-----------------------------------------------------------------------+
|        File Writing Summary       |              Filename             |
+-----------------------------------------------------------------------+
|SU2 binary restart                 |restart.dat                        |
|Paraview                           |vol_solution.vtu                   |
|Paraview surface                   |surface.vtu                        |
+-----------------------------------------------------------------------+
+--------------------------------------------------------------------------------------------------------------------+
|  Inner_Iter|    rms[Rho]|   rms[RhoU]|   rms[RhoV]|   rms[RhoE]|          CD|          CL|         CMz|   LinSolRes|
+--------------------------------------------------------------------------------------------------------------------+
|        3525|   -9.210095|   -8.588017|   -8.982584|   -8.989634|    0.008589|    0.313933|    0.162923|   -0.652983|
|        3550|   -9.217870|   -8.599036|   -8.992590|   -8.998951|    0.008588|    0.313838|    0.162876|   -0.657218|
|        3575|   -9.226076|   -8.610085|   -9.002688|   -9.009675|    0.008586|    0.313745|    0.162829|   -0.651147|
|        3600|   -9.234225|   -8.621132|   -9.012836|   -9.020107|    0.008585|    0.313654|    0.162784|   -0.656402|
+-----------------------------------------------------------------------+
|        File Writing Summary       |              Filename             |
+-----------------------------------------------------------------------+
|SU2 binary restart                 |restart.dat                        |
|Paraview                           |vol_solution.vtu                   |
|Paraview surface                   |surface.vtu                        |
+-----------------------------------------------------------------------+
+--------------------------------------------------------------------------------------------------------------------+
|  Inner_Iter|    rms[Rho]|   rms[RhoU]|   rms[RhoV]|   rms[RhoE]|          CD|          CL|         CMz|   LinSolRes|
+--------------------------------------------------------------------------------------------------------------------+
|        3625|   -9.242111|   -8.632217|   -9.022919|   -9.030152|    0.008583|    0.313565|    0.162740|   -0.649844|
|        3650|   -9.250472|   -8.643306|   -9.033180|   -9.041345|    0.008582|    0.313478|    0.162697|   -0.654445|
|        3675|   -9.258177|   -8.654405|   -9.043259|   -9.051053|    0.008581|    0.313393|    0.162655|   -0.648753|
|        3700|   -9.266554|   -8.665506|   -9.053588|   -9.062552|    0.008579|    0.313310|    0.162615|   -0.651484|
+-----------------------------------------------------------------------+
|        File Writing Summary       |              Filename             |
+-----------------------------------------------------------------------+
|SU2 binary restart                 |restart.dat                        |
|Paraview                           |vol_solution.vtu                   |
|Paraview surface                   |surface.vtu                        |
+-----------------------------------------------------------------------+
+--------------------------------------------------------------------------------------------------------------------+
|  Inner_Iter|    rms[Rho]|   rms[RhoU]|   rms[RhoV]|   rms[RhoE]|          CD|          CL|         CMz|   LinSolRes|
+--------------------------------------------------------------------------------------------------------------------+
|        3725|   -9.274152|   -8.676620|   -9.063690|   -9.072106|    0.008578|    0.313229|    0.162575|   -0.647563|
|        3750|   -9.282491|   -8.687750|   -9.074069|   -9.083780|    0.008577|    0.313150|    0.162535|   -0.648493|
|        3775|   -9.290021|   -8.698889|   -9.084191|   -9.093296|    0.008576|    0.313073|    0.162497|   -0.646352|
|        3800|   -9.298291|   -8.710051|   -9.094589|   -9.105066|    0.008574|    0.312998|    0.162460|   -0.645964|
+-----------------------------------------------------------------------+
|        File Writing Summary       |              Filename             |
+-----------------------------------------------------------------------+
|SU2 binary restart                 |restart.dat                        |
|Paraview                           |vol_solution.vtu                   |
|Paraview surface                   |surface.vtu                        |
+-----------------------------------------------------------------------+
+--------------------------------------------------------------------------------------------------------------------+
|  Inner_Iter|    rms[Rho]|   rms[RhoU]|   rms[RhoV]|   rms[RhoE]|          CD|          CL|         CMz|   LinSolRes|
+--------------------------------------------------------------------------------------------------------------------+
|        3825|   -9.305755|   -8.721229|   -9.104752|   -9.114558|    0.008573|    0.312924|    0.162424|   -0.645079|
|        3850|   -9.313955|   -8.732415|   -9.115195|   -9.126384|    0.008572|    0.312852|    0.162388|   -0.643913|
|        3875|   -9.321371|   -8.743607|   -9.125435|   -9.135918|    0.008571|    0.312782|    0.162354|   -0.643779|
|        3900|   -9.329470|   -8.754814|   -9.135916|   -9.147733|    0.008570|    0.312713|    0.162320|   -0.642278|
+-----------------------------------------------------------------------+
|        File Writing Summary       |              Filename             |
+-----------------------------------------------------------------------+
|SU2 binary restart                 |restart.dat                        |
|Paraview                           |vol_solution.vtu                   |
|Paraview surface                   |surface.vtu                        |
+-----------------------------------------------------------------------+
+--------------------------------------------------------------------------------------------------------------------+
|  Inner_Iter|    rms[Rho]|   rms[RhoU]|   rms[RhoV]|   rms[RhoE]|          CD|          CL|         CMz|   LinSolRes|
+--------------------------------------------------------------------------------------------------------------------+
|        3925|   -9.336828|   -8.766031|   -9.146184|   -9.157308|    0.008569|    0.312646|    0.162287|   -0.642411|
|        3950|   -9.344820|   -8.777258|   -9.156677|   -9.169088|    0.008568|    0.312581|    0.162255|   -0.640919|
|        3975|   -9.352108|   -8.788491|   -9.166961|   -9.178708|    0.008567|    0.312517|    0.162223|   -0.641003|
|        4000|   -9.359986|   -8.799728|   -9.177465|   -9.190436|    0.008566|    0.312454|    0.162193|   -0.639836|
+-----------------------------------------------------------------------+
|        File Writing Summary       |              Filename             |
+-----------------------------------------------------------------------+
|SU2 binary restart                 |restart.dat                        |
|Paraview                           |vol_solution.vtu                   |
|Paraview surface                   |surface.vtu                        |
+-----------------------------------------------------------------------+
+--------------------------------------------------------------------------------------------------------------------+
|  Inner_Iter|    rms[Rho]|   rms[RhoU]|   rms[RhoV]|   rms[RhoE]|          CD|          CL|         CMz|   LinSolRes|
+--------------------------------------------------------------------------------------------------------------------+
|        4025|   -9.367219|   -8.810966|   -9.187786|   -9.200133|    0.008565|    0.312393|    0.162163|   -0.639577|
|        4050|   -9.374988|   -8.822217|   -9.198329|   -9.211799|    0.008564|    0.312334|    0.162134|   -0.639067|
|        4075|   -9.382173|   -8.833474|   -9.208686|   -9.221608|    0.008563|    0.312276|    0.162105|   -0.638185|
|        4100|   -9.389830|   -8.844743|   -9.219256|   -9.233193|    0.008563|    0.312219|    0.162077|   -0.638625|
+-----------------------------------------------------------------------+
|        File Writing Summary       |              Filename             |
+-----------------------------------------------------------------------+
|SU2 binary restart                 |restart.dat                        |
|Paraview                           |vol_solution.vtu                   |
|Paraview surface                   |surface.vtu                        |
+-----------------------------------------------------------------------+
+--------------------------------------------------------------------------------------------------------------------+
|  Inner_Iter|    rms[Rho]|   rms[RhoU]|   rms[RhoV]|   rms[RhoE]|          CD|          CL|         CMz|   LinSolRes|
+--------------------------------------------------------------------------------------------------------------------+
|        4125|   -9.396964|   -8.856016|   -9.229654|   -9.243127|    0.008562|    0.312164|    0.162050|   -0.636867|
|        4150|   -9.404505|   -8.867301|   -9.240239|   -9.254614|    0.008561|    0.312110|    0.162024|   -0.638390|
|        4175|   -9.411590|   -8.878592|   -9.250658|   -9.264691|    0.008560|    0.312057|    0.161998|   -0.635587|
|        4200|   -9.419009|   -8.889891|   -9.261231|   -9.276056|    0.008559|    0.312006|    0.161973|   -0.637940|
+-----------------------------------------------------------------------+
|        File Writing Summary       |              Filename             |
+-----------------------------------------------------------------------+
|SU2 binary restart                 |restart.dat                        |
|Paraview                           |vol_solution.vtu                   |
|Paraview surface                   |surface.vtu                        |
+-----------------------------------------------------------------------+
+--------------------------------------------------------------------------------------------------------------------+
|  Inner_Iter|    rms[Rho]|   rms[RhoU]|   rms[RhoV]|   rms[RhoE]|          CD|          CL|         CMz|   LinSolRes|
+--------------------------------------------------------------------------------------------------------------------+
|        4225|   -9.426064|   -8.901199|   -9.271682|   -9.286373|    0.008559|    0.311955|    0.161948|   -0.634306|
|        4250|   -9.433335|   -8.912505|   -9.282251|   -9.297521|    0.008558|    0.311906|    0.161924|   -0.636818|
|        4275|   -9.440427|   -8.923820|   -9.292775|   -9.308327|    0.008557|    0.311859|    0.161901|   -0.633008|
|        4300|   -9.447502|   -8.935127|   -9.303338|   -9.319075|    0.008557|    0.311812|    0.161878|   -0.635059|
+-----------------------------------------------------------------------+
|        File Writing Summary       |              Filename             |
+-----------------------------------------------------------------------+
|SU2 binary restart                 |restart.dat                        |
|Paraview                           |vol_solution.vtu                   |
|Paraview surface                   |surface.vtu                        |
+-----------------------------------------------------------------------+
+--------------------------------------------------------------------------------------------------------------------+
|  Inner_Iter|    rms[Rho]|   rms[RhoU]|   rms[RhoV]|   rms[RhoE]|          CD|          CL|         CMz|   LinSolRes|
+--------------------------------------------------------------------------------------------------------------------+
|        4325|   -9.454652|   -8.946455|   -9.313914|   -9.330476|    0.008556|    0.311766|    0.161856|   -0.631771|
|        4350|   -9.461507|   -8.957783|   -9.324432|   -9.340713|    0.008555|    0.311722|    0.161834|   -0.633175|
|        4375|   -9.468610|   -8.969124|   -9.335045|   -9.352310|    0.008555|    0.311678|    0.161813|   -0.631115|
|        4400|   -9.475318|   -8.980464|   -9.345547|   -9.362313|    0.008554|    0.311636|    0.161792|   -0.631635|
+-----------------------------------------------------------------------+
|        File Writing Summary       |              Filename             |
+-----------------------------------------------------------------------+
|SU2 binary restart                 |restart.dat                        |
|Paraview                           |vol_solution.vtu                   |
|Paraview surface                   |surface.vtu                        |
+-----------------------------------------------------------------------+
+--------------------------------------------------------------------------------------------------------------------+
|  Inner_Iter|    rms[Rho]|   rms[RhoU]|   rms[RhoV]|   rms[RhoE]|          CD|          CL|         CMz|   LinSolRes|
+--------------------------------------------------------------------------------------------------------------------+
|        4425|   -9.482298|   -8.991807|   -9.356200|   -9.373745|    0.008553|    0.311594|    0.161772|   -0.631806|
|        4450|   -9.488950|   -9.003150|   -9.366731|   -9.383926|    0.008553|    0.311554|    0.161752|   -0.630574|
|        4475|   -9.495827|   -9.014495|   -9.377402|   -9.395236|    0.008552|    0.311515|    0.161733|   -0.632426|
|        4500|   -9.502488|   -9.025844|   -9.387997|   -9.405881|    0.008552|    0.311476|    0.161714|   -0.629456|
+-----------------------------------------------------------------------+
|        File Writing Summary       |              Filename             |
+-----------------------------------------------------------------------+
|SU2 binary restart                 |restart.dat                        |
|Paraview                           |vol_solution.vtu                   |
|Paraview surface                   |surface.vtu                        |
+-----------------------------------------------------------------------+
+--------------------------------------------------------------------------------------------------------------------+
|  Inner_Iter|    rms[Rho]|   rms[RhoU]|   rms[RhoV]|   rms[RhoE]|          CD|          CL|         CMz|   LinSolRes|
+--------------------------------------------------------------------------------------------------------------------+
|        4525|   -9.509212|   -9.037186|   -9.398659|   -9.416873|    0.008551|    0.311439|    0.161696|   -0.630986|
|        4550|   -9.515958|   -9.048544|   -9.409343|   -9.428342|    0.008551|    0.311402|    0.161678|   -0.628242|
|        4575|   -9.522450|   -9.059905|   -9.419972|   -9.438659|    0.008550|    0.311366|    0.161661|   -0.629169|
|        4600|   -9.529100|   -9.071280|   -9.430688|   -9.450086|    0.008550|    0.311331|    0.161644|   -0.628588|
+-----------------------------------------------------------------------+
|        File Writing Summary       |              Filename             |
+-----------------------------------------------------------------------+
|SU2 binary restart                 |restart.dat                        |
|Paraview                           |vol_solution.vtu                   |
|Paraview surface                   |surface.vtu                        |
+-----------------------------------------------------------------------+
+--------------------------------------------------------------------------------------------------------------------+
|  Inner_Iter|    rms[Rho]|   rms[RhoU]|   rms[RhoV]|   rms[RhoE]|          CD|          CL|         CMz|   LinSolRes|
+--------------------------------------------------------------------------------------------------------------------+
|        4625|   -9.535478|   -9.082661|   -9.441287|   -9.460302|    0.008549|    0.311297|    0.161628|   -0.628245|
|        4650|   -9.542027|   -9.094045|   -9.451993|   -9.471581|    0.008549|    0.311264|    0.161611|   -0.629847|
|        4675|   -9.548425|   -9.105428|   -9.462643|   -9.482394|    0.008548|    0.311232|    0.161596|   -0.627275|
|        4700|   -9.554834|   -9.116802|   -9.473359|   -9.493348|    0.008548|    0.311200|    0.161580|   -0.628285|
+-----------------------------------------------------------------------+
|        File Writing Summary       |              Filename             |
+-----------------------------------------------------------------------+
|SU2 binary restart                 |restart.dat                        |
|Paraview                           |vol_solution.vtu                   |
|Paraview surface                   |surface.vtu                        |
+-----------------------------------------------------------------------+
+--------------------------------------------------------------------------------------------------------------------+
|  Inner_Iter|    rms[Rho]|   rms[RhoU]|   rms[RhoV]|   rms[RhoE]|          CD|          CL|         CMz|   LinSolRes|
+--------------------------------------------------------------------------------------------------------------------+
|        4725|   -9.561286|   -9.128189|   -9.484137|   -9.504911|    0.008547|    0.311169|    0.161566|   -0.626396|
|        4750|   -9.567487|   -9.139584|   -9.494843|   -9.515194|    0.008547|    0.311139|    0.161551|   -0.626996|
|        4775|   -9.573812|   -9.150993|   -9.505635|   -9.526466|    0.008547|    0.311110|    0.161537|   -0.628137|
|        4800|   -9.579983|   -9.162403|   -9.516332|   -9.537101|    0.008546|    0.311081|    0.161523|   -0.626470|
+-----------------------------------------------------------------------+
|        File Writing Summary       |              Filename             |
+-----------------------------------------------------------------------+
|SU2 binary restart                 |restart.dat                        |
|Paraview                           |vol_solution.vtu                   |
|Paraview surface                   |surface.vtu                        |
+-----------------------------------------------------------------------+
+--------------------------------------------------------------------------------------------------------------------+
|  Inner_Iter|    rms[Rho]|   rms[RhoU]|   rms[RhoV]|   rms[RhoE]|          CD|          CL|         CMz|   LinSolRes|
+--------------------------------------------------------------------------------------------------------------------+
|        4825|   -9.586210|   -9.173808|   -9.527071|   -9.548224|    0.008546|    0.311053|    0.161509|   -0.627397|
|        4850|   -9.592431|   -9.185223|   -9.537818|   -9.559726|    0.008545|    0.311026|    0.161496|   -0.625443|
|        4875|   -9.598448|   -9.196637|   -9.548511|   -9.570068|    0.008545|    0.310999|    0.161483|   -0.626075|
|        4900|   -9.604559|   -9.208053|   -9.559316|   -9.581289|    0.008545|    0.310973|    0.161471|   -0.627334|
+-----------------------------------------------------------------------+
|        File Writing Summary       |              Filename             |
+-----------------------------------------------------------------------+
|SU2 binary restart                 |restart.dat                        |
|Paraview                           |vol_solution.vtu                   |
|Paraview surface                   |surface.vtu                        |
+-----------------------------------------------------------------------+
+--------------------------------------------------------------------------------------------------------------------+
|  Inner_Iter|    rms[Rho]|   rms[RhoU]|   rms[RhoV]|   rms[RhoE]|          CD|          CL|         CMz|   LinSolRes|
+--------------------------------------------------------------------------------------------------------------------+
|        4925|   -9.610561|   -9.219462|   -9.570069|   -9.592096|    0.008544|    0.310948|    0.161459|   -0.625680|
|        4950|   -9.616580|   -9.230861|   -9.580861|   -9.603179|    0.008544|    0.310923|    0.161447|   -0.626281|
|        4975|   -9.622592|   -9.242280|   -9.591678|   -9.614620|    0.008544|    0.310899|    0.161435|   -0.625257|
[...]
+-----------------------------------------------------------------------+
+--------------------------------------------------------------------------------------------------------------------+
|  Inner_Iter|    rms[Rho]|   rms[RhoU]|   rms[RhoV]|   rms[RhoE]|          CD|          CL|         CMz|   LinSolRes|
+--------------------------------------------------------------------------------------------------------------------+
|        5725|   -9.786668|   -9.584686|   -9.916218|   -9.944549|    0.008538|    0.310395|    0.161195|   -0.633461|
|        5750|   -9.791726|   -9.596066|   -9.927031|   -9.955174|    0.008537|    0.310384|    0.161190|   -0.634399|
|        5775|   -9.796790|   -9.607426|   -9.937855|   -9.966298|    0.008537|    0.310373|    0.161185|   -0.634708|
|        5800|   -9.801823|   -9.618802|   -9.948693|   -9.977167|    0.008537|    0.310363|    0.161180|   -0.636649|
+-----------------------------------------------------------------------+
|        File Writing Summary       |              Filename             |
+-----------------------------------------------------------------------+
|SU2 binary restart                 |restart.dat                        |
|Paraview                           |vol_solution.vtu                   |
|Paraview surface                   |surface.vtu                        |
+-----------------------------------------------------------------------+
+--------------------------------------------------------------------------------------------------------------------+
|  Inner_Iter|    rms[Rho]|   rms[RhoU]|   rms[RhoV]|   rms[RhoE]|          CD|          CL|         CMz|   LinSolRes|
+--------------------------------------------------------------------------------------------------------------------+
|        5825|   -9.806858|   -9.630152|   -9.959528|   -9.988532|    0.008537|    0.310352|    0.161175|   -0.635902|
|        5850|   -9.811830|   -9.641521|   -9.970319|   -9.998928|    0.008537|    0.310342|    0.161170|   -0.637576|
|        5875|   -9.816828|   -9.652857|   -9.981158|  -10.010152|    0.008537|    0.310332|    0.161166|   -0.637899|
|        5900|   -9.821788|   -9.664218|   -9.991984|  -10.020998|    0.008537|    0.310323|    0.161161|   -0.639805|
+-----------------------------------------------------------------------+
|        File Writing Summary       |              Filename             |
+-----------------------------------------------------------------------+
|SU2 binary restart                 |restart.dat                        |
|Paraview                           |vol_solution.vtu                   |
|Paraview surface                   |surface.vtu                        |
+-----------------------------------------------------------------------+
+--------------------------------------------------------------------------------------------------------------------+
|  Inner_Iter|    rms[Rho]|   rms[RhoU]|   rms[RhoV]|   rms[RhoE]|          CD|          CL|         CMz|   LinSolRes|
+--------------------------------------------------------------------------------------------------------------------+
|        5925|   -9.826751|   -9.675545|  -10.002815|  -10.032295|    0.008537|    0.310313|    0.161157|   -0.639333|
|        5950|   -9.831659|   -9.686892|  -10.013594|  -10.042703|    0.008536|    0.310304|    0.161152|   -0.641110|
|        5975|   -9.836589|   -9.698208|  -10.024418|  -10.053897|    0.008536|    0.310295|    0.161148|   -0.641543|
|        6000|   -9.841486|   -9.709548|  -10.035226|  -10.064697|    0.008536|    0.310287|    0.161144|   -0.643624|
+-----------------------------------------------------------------------+
|        File Writing Summary       |              Filename             |
+-----------------------------------------------------------------------+
|SU2 binary restart                 |restart.dat                        |
|Paraview                           |vol_solution.vtu                   |
|Paraview surface                   |surface.vtu                        |
+-----------------------------------------------------------------------+
+--------------------------------------------------------------------------------------------------------------------+
|  Inner_Iter|    rms[Rho]|   rms[RhoU]|   rms[RhoV]|   rms[RhoE]|          CD|          CL|         CMz|   LinSolRes|
+--------------------------------------------------------------------------------------------------------------------+
|        6025|   -9.846385|   -9.720851|  -10.046044|  -10.075999|    0.008536|    0.310278|    0.161140|   -0.643272|
|        6050|   -9.851238|   -9.732174|  -10.056817|  -10.086377|    0.008536|    0.310270|    0.161136|   -0.645208|
|        6075|   -9.856107|   -9.743464|  -10.067625|  -10.097534|    0.008536|    0.310262|    0.161133|   -0.645681|
|        6100|   -9.860950|   -9.754771|  -10.078426|  -10.108297|    0.008536|    0.310254|    0.161129|   -0.647863|
+-----------------------------------------------------------------------+
|        File Writing Summary       |              Filename             |
+-----------------------------------------------------------------------+
|SU2 binary restart                 |restart.dat                        |
|Paraview                           |vol_solution.vtu                   |
|Paraview surface                   |surface.vtu                        |
+-----------------------------------------------------------------------+
+--------------------------------------------------------------------------------------------------------------------+
|  Inner_Iter|    rms[Rho]|   rms[RhoU]|   rms[RhoV]|   rms[RhoE]|          CD|          CL|         CMz|   LinSolRes|
+--------------------------------------------------------------------------------------------------------------------+
|        6125|   -9.865785|   -9.766053|  -10.089208|  -10.119446|    0.008536|    0.310246|    0.161125|   -0.648140|
|        6150|   -9.870601|   -9.777334|  -10.099978|  -10.130144|    0.008536|    0.310239|    0.161122|   -0.649452|
|        6175|   -9.875400|   -9.788610|  -10.110720|  -10.140844|    0.008536|    0.310231|    0.161118|   -0.650888|
|        6200|   -9.880203|   -9.799861|  -10.121494|  -10.151858|    0.008536|    0.310224|    0.161115|   -0.651905|
+-----------------------------------------------------------------------+
|        File Writing Summary       |              Filename             |
+-----------------------------------------------------------------------+
|SU2 binary restart                 |restart.dat                        |
|Paraview                           |vol_solution.vtu                   |
|Paraview surface                   |surface.vtu                        |
+-----------------------------------------------------------------------+
+--------------------------------------------------------------------------------------------------------------------+
|  Inner_Iter|    rms[Rho]|   rms[RhoU]|   rms[RhoV]|   rms[RhoE]|          CD|          CL|         CMz|   LinSolRes|
+--------------------------------------------------------------------------------------------------------------------+
|        6225|   -9.884981|   -9.811127|  -10.132245|  -10.162563|    0.008536|    0.310217|    0.161112|   -0.654155|
|        6250|   -9.889761|   -9.822354|  -10.143008|  -10.173765|    0.008536|    0.310210|    0.161109|   -0.654275|
|        6275|   -9.894515|   -9.833593|  -10.153742|  -10.184221|    0.008535|    0.310204|    0.161106|   -0.656239|
|        6300|   -9.899264|   -9.844815|  -10.164483|  -10.195023|    0.008535|    0.310197|    0.161103|   -0.657608|
+-----------------------------------------------------------------------+
|        File Writing Summary       |              Filename             |
+-----------------------------------------------------------------------+
|SU2 binary restart                 |restart.dat                        |
|Paraview                           |vol_solution.vtu                   |
|Paraview surface                   |surface.vtu                        |
+-----------------------------------------------------------------------+
+--------------------------------------------------------------------------------------------------------------------+
|  Inner_Iter|    rms[Rho]|   rms[RhoU]|   rms[RhoV]|   rms[RhoE]|          CD|          CL|         CMz|   LinSolRes|
+--------------------------------------------------------------------------------------------------------------------+
|        6325|   -9.904013|   -9.856015|  -10.175252|  -10.205976|    0.008535|    0.310191|    0.161100|   -0.658842|
|        6350|   -9.908741|   -9.867232|  -10.185995|  -10.216621|    0.008535|    0.310185|    0.161097|   -0.661323|
|        6375|   -9.913467|   -9.878415|  -10.196731|  -10.227708|    0.008535|    0.310179|    0.161094|   -0.661845|
|        6400|   -9.918181|   -9.889600|  -10.207439|  -10.238356|    0.008535|    0.310173|    0.161091|   -0.663483|
+-----------------------------------------------------------------------+
|        File Writing Summary       |              Filename             |
+-----------------------------------------------------------------------+
|SU2 binary restart                 |restart.dat                        |
|Paraview                           |vol_solution.vtu                   |
|Paraview surface                   |surface.vtu                        |
+-----------------------------------------------------------------------+
+--------------------------------------------------------------------------------------------------------------------+
|  Inner_Iter|    rms[Rho]|   rms[RhoU]|   rms[RhoV]|   rms[RhoE]|          CD|          CL|         CMz|   LinSolRes|
+--------------------------------------------------------------------------------------------------------------------+
|        6425|   -9.922876|   -9.900783|  -10.218102|  -10.248785|    0.008535|    0.310167|    0.161089|   -0.665629|
|        6450|   -9.927578|   -9.911931|  -10.228794|  -10.259772|    0.008535|    0.310162|    0.161086|   -0.666582|
|        6475|   -9.932267|   -9.923082|  -10.239479|  -10.270416|    0.008535|    0.310156|    0.161084|   -0.668825|
|        6500|   -9.936944|   -9.934228|  -10.250146|  -10.281064|    0.008535|    0.310151|    0.161081|   -0.670966|
+-----------------------------------------------------------------------+
|        File Writing Summary       |              Filename             |
+-----------------------------------------------------------------------+
|SU2 binary restart                 |restart.dat                        |
|Paraview                           |vol_solution.vtu                   |
|Paraview surface                   |surface.vtu                        |
+-----------------------------------------------------------------------+
+--------------------------------------------------------------------------------------------------------------------+
|  Inner_Iter|    rms[Rho]|   rms[RhoU]|   rms[RhoV]|   rms[RhoE]|          CD|          CL|         CMz|   LinSolRes|
+--------------------------------------------------------------------------------------------------------------------+
|        6525|   -9.941622|   -9.945338|  -10.260833|  -10.292097|    0.008535|    0.310146|    0.161079|   -0.671696|
|        6550|   -9.946287|   -9.956450|  -10.271493|  -10.302605|    0.008535|    0.310141|    0.161076|   -0.673724|
|        6575|   -9.950940|   -9.967556|  -10.282125|  -10.312977|    0.008535|    0.310136|    0.161074|   -0.676084|
|        6600|   -9.955596|   -9.978630|  -10.292783|  -10.323857|    0.008535|    0.310131|    0.161072|   -0.677347|
+-----------------------------------------------------------------------+
|        File Writing Summary       |              Filename             |
+-----------------------------------------------------------------------+
|SU2 binary restart                 |restart.dat                        |
|Paraview                           |vol_solution.vtu                   |
|Paraview surface                   |surface.vtu                        |
+-----------------------------------------------------------------------+
+--------------------------------------------------------------------------------------------------------------------+
|  Inner_Iter|    rms[Rho]|   rms[RhoU]|   rms[RhoV]|   rms[RhoE]|          CD|          CL|         CMz|   LinSolRes|
+--------------------------------------------------------------------------------------------------------------------+
|        6625|   -9.960245|   -9.989694|  -10.303432|  -10.334537|    0.008535|    0.310126|    0.161070|   -0.679281|
|        6650|   -9.964883|  -10.000763|  -10.314056|  -10.345004|    0.008535|    0.310122|    0.161068|   -0.682063|
|        6675|   -9.969515|  -10.011805|  -10.324673|  -10.355732|    0.008535|    0.310117|    0.161066|   -0.683645|
|        6700|   -9.974149|  -10.022822|  -10.335300|  -10.366595|    0.008535|    0.310113|    0.161064|   -0.684909|
+-----------------------------------------------------------------------+
|        File Writing Summary       |              Filename             |
+-----------------------------------------------------------------------+
|SU2 binary restart                 |restart.dat                        |
|Paraview                           |vol_solution.vtu                   |
|Paraview surface                   |surface.vtu                        |
+-----------------------------------------------------------------------+
+--------------------------------------------------------------------------------------------------------------------+
|  Inner_Iter|    rms[Rho]|   rms[RhoU]|   rms[RhoV]|   rms[RhoE]|          CD|          CL|         CMz|   LinSolRes|
+--------------------------------------------------------------------------------------------------------------------+
|        6725|   -9.978771|  -10.033843|  -10.345880|  -10.376920|    0.008535|    0.310109|    0.161062|   -0.687322|
|        6750|   -9.983384|  -10.044854|  -10.356432|  -10.387207|    0.008534|    0.310105|    0.161060|   -0.689863|
|        6775|   -9.987998|  -10.055837|  -10.366995|  -10.397901|    0.008534|    0.310101|    0.161058|   -0.691527|
|        6800|   -9.992610|  -10.066800|  -10.377553|  -10.408554|    0.008534|    0.310097|    0.161056|   -0.693266|
+-----------------------------------------------------------------------+
|        File Writing Summary       |              Filename             |
+-----------------------------------------------------------------------+
|SU2 binary restart                 |restart.dat                        |
|Paraview                           |vol_solution.vtu                   |
|Paraview surface                   |surface.vtu                        |
+-----------------------------------------------------------------------+
+--------------------------------------------------------------------------------------------------------------------+
|  Inner_Iter|    rms[Rho]|   rms[RhoU]|   rms[RhoV]|   rms[RhoE]|          CD|          CL|         CMz|   LinSolRes|
+--------------------------------------------------------------------------------------------------------------------+
|        6825|   -9.997215|  -10.077761|  -10.388094|  -10.418950|    0.008534|    0.310093|    0.161054|   -0.695965|
|        6850|  -10.001813|  -10.088711|  -10.398619|  -10.429324|    0.008534|    0.310089|    0.161053|   -0.698688|
|        6875|  -10.006726|  -10.100580|  -10.407150|  -10.416387|    0.008534|    0.310085|    0.161051|   -0.744590|
|        6900|  -10.011266|  -10.112081|  -10.420907|  -10.451547|    0.008534|    0.310082|    0.161049|   -0.703214|
+-----------------------------------------------------------------------+
|        File Writing Summary       |              Filename             |
+-----------------------------------------------------------------------+
|SU2 binary restart                 |restart.dat                        |
|Paraview                           |vol_solution.vtu                   |
|Paraview surface                   |surface.vtu                        |
+-----------------------------------------------------------------------+
+--------------------------------------------------------------------------------------------------------------------+
|  Inner_Iter|    rms[Rho]|   rms[RhoU]|   rms[RhoV]|   rms[RhoE]|          CD|          CL|         CMz|   LinSolRes|
+--------------------------------------------------------------------------------------------------------------------+
|        6925|  -10.015921|  -10.122802|  -10.431803|  -10.459458|    0.008534|    0.310078|    0.161048|   -0.705397|
|        6950|  -10.020774|  -10.133615|  -10.441655|  -10.472564|    0.008534|    0.310075|    0.161046|   -0.707487|
|        6975|  -10.025430|  -10.144815|  -10.452170|  -10.494000|    0.008534|    0.310071|    0.161045|   -0.589253|
|        7000|  -10.030049|  -10.156392|  -10.463106|  -10.503348|    0.008534|    0.310068|    0.161043|   -0.714304|
+-----------------------------------------------------------------------+
|        File Writing Summary       |              Filename             |
+-----------------------------------------------------------------------+
|SU2 binary restart                 |restart.dat                        |
|Paraview                           |vol_solution.vtu                   |
|Paraview surface                   |surface.vtu                        |
+-----------------------------------------------------------------------+
+--------------------------------------------------------------------------------------------------------------------+
|  Inner_Iter|    rms[Rho]|   rms[RhoU]|   rms[RhoV]|   rms[RhoE]|          CD|          CL|         CMz|   LinSolRes|
+--------------------------------------------------------------------------------------------------------------------+
|        7025|  -10.034602|  -10.167013|  -10.473540|  -10.499145|    0.008534|    0.310065|    0.161042|   -0.714378|
|        7050|  -10.039555|  -10.177350|  -10.483624|  -10.513992|    0.008534|    0.310062|    0.161040|   -0.716596|
|        7073|  -10.043913|  -10.187510|  -10.489916|  -10.500858|    0.008534|    0.310059|    0.161039|   -0.763959|

----------------------------- Solver Exit -------------------------------
All convergence criteria satisfied.
+-----------------------------------------------------------------------+
|      Convergence Field     |     Value    |   Criterion  |  Converged |
+-----------------------------------------------------------------------+
|                  Cauchy[CL]|   4.99991e-07|       < 5e-07|         Yes|
+-----------------------------------------------------------------------+
-------------------------------------------------------------------------
+-----------------------------------------------------------------------+
|        File Writing Summary       |              Filename             |
+-----------------------------------------------------------------------+
|SU2 binary restart                 |restart.dat                        |
|Paraview                           |vol_solution.vtu                   |
|Paraview surface                   |surface.vtu                        |
+-----------------------------------------------------------------------+

------------------------- Solver Postprocessing -------------------------
Deleted CNumerics container.
Deleted CIntegration container.
Deleted CSolver container.
Deleted CIteration container.
Deleted CInterface container.
Deleted CGeometry container.
Deleted CFreeFormDefBox class.
Deleted CSurfaceMovement class.
Deleted CVolumetricMovement class.
Deleted CConfig container.
Deleted nInst container.
Deleted COutput class.
-------------------------------------------------------------------------

------------------------- Exit Success (SU2_CFD) ------------------------

