WARNING: The current SST-1994m model is inconsistent with literature. We recommend using the SST-2003m model.
In SU2 v8 the 2003m model will become default, and the inconsistency will be fixed.

-------------------------------------------------------------------------
|    ___ _   _ ___                                                      |
|   / __| | | |_  )   Release 7.4.0 "Blackbird"                         |
|   \__ \ |_| |/ /                                                      |
|   |___/\___//___|   Suite (Computational Fluid Dynamics Code)         |
|                                                                       |
-------------------------------------------------------------------------
| SU2 Project Website: https://su2code.github.io                        |
|                                                                       |
| The SU2 Project is maintained by the SU2 Foundation                   |
| (http://su2foundation.org)                                            |
-------------------------------------------------------------------------
| Copyright 2012-2022, SU2 Contributors                                 |
|                                                                       |
| SU2 is free software; you can redistribute it and/or                  |
| modify it under the terms of the GNU Lesser General Public            |
| License as published by the Free Software Foundation; either          |
| version 2.1 of the License, or (at your option) any later version.    |
|                                                                       |
| SU2 is distributed in the hope that it will be useful,                |
| but WITHOUT ANY WARRANTY; without even the implied warranty of        |
| MERCHANTABILITY or FITNESS FOR A PARTICULAR PURPOSE. See the GNU      |
| Lesser General Public License for more details.                       |
|                                                                       |
| You should have received a copy of the GNU Lesser General Public      |
| License along with SU2. If not, see <http://www.gnu.org/licenses/>.   |
-------------------------------------------------------------------------
WARNING: The current SST-1994m model is inconsistent with literature. We recommend using the SST-2003m model.
In SU2 v8 the 2003m model will become default, and the inconsistency will be fixed.

Parsing config file for zone 0
WARNING: The current SST-1994m model is inconsistent with literature. We recommend using the SST-2003m model.
In SU2 v8 the 2003m model will become default, and the inconsistency will be fixed.

----------------- Physical Case Definition ( Zone 0 ) -------------------
Compressible RANS equations.
Turbulence model: Menter's k-omega SST-1994m with no production modification.
Hybrid RANS/LES: No Hybrid RANS/LES
Mach number: 0.79.
Angle of attack (AoA): 1 deg, and angle of sideslip (AoS): 0 deg.
Reynolds number: 1.66204e+07. Reference length 2.62.
Reading and writing binary SU2 native restart files.
Read flow solution from: solution_flow.
Non-Dimensional simulation (V=Mach, Rho=1.0, T=1.0 at the farfield).
The reference area is 2.62 m^2.
The semi-span will be computed using the max y(3D) value.
The reference length is 2.62 m.
Reference origin for moment evaluation is (0, 0, 0).
Surface(s) where the force coefficients are evaluated: wall.

Surface(s) plotted in the output file: wall.
Input mesh file name: su2meshEx.su2

--------------- Space Numerical Integration ( Zone 0 ) ------------------
Roe (with entropy fix = 1e-05) solver for the flow inviscid terms.
Standard Roe without low-dissipation function.
Second order integration in space, with slope limiter.
Van Albada slope-limiting method implemented by edges.
Scalar upwind solver for the turbulence model.
First order integration in space.
Average of gradients with correction (viscous flow terms).
Average of gradients with correction (viscous turbulence terms).
Gradient for upwind reconstruction: Green-Gauss.
Gradient for viscous and source terms: Green-Gauss.

--------------- Time Numerical Integration  ( Zone 0 ) ------------------
Local time stepping (steady state simulation).
Euler implicit method for the flow equations.
FGMRES is used for solving the linear system.
Using a ILU(0) preconditioning.
Convergence criteria of the linear solver: 0.2.
Max number of linear iterations: 4.
CFL adaptation. Factor down: 0.1, factor up: 1.2,
                lower limit: 25, upper limit: 1000,
                acceptable linear residual: 0.001.
Courant-Friedrichs-Lewy number:       25
Euler implicit time integration for the turbulence model.

------------------ Convergence Criteria  ( Zone 0 ) ---------------------
Maximum number of solver subiterations: 25000.
Begin convergence monitoring at iteration 10.
Residual minimum value: 1e-11.5.
Cauchy series min. value: 5e-07.
Number of Cauchy elements: 500.
Begin windowed time average at iteration 0.

-------------------- Output Information ( Zone 0 ) ----------------------
File writing frequency: 
+------------------------------------+
|                     File| Frequency|
+------------------------------------+
|                  RESTART|       100|
|                 PARAVIEW|       100|
|         SURFACE_PARAVIEW|       100|
+------------------------------------+
Writing the convergence history file every 1 inner iterations.
Writing the screen convergence history every 25 inner iterations.
The tabular file format is CSV (.csv).
Convergence history file name: history.
Forces breakdown file name: forces_breakdown.dat.
Surface file name: surface.
Volume file name: vol_solution.
Restart file name: restart.dat.

------------- Config File Boundary Information ( Zone 0 ) ---------------
+-----------------------------------------------------------------------+
|                        Marker Type|                        Marker Name|
+-----------------------------------------------------------------------+
|                          Far-field|                          far-field|
+-----------------------------------------------------------------------+
|                     Heat flux wall|                               wall|
+-----------------------------------------------------------------------+

-------------------- Output Preprocessing ( Zone 0 ) --------------------

WARNING: SURFACE_PRESSURE_DROP can only be computed for at least 2 surfaces (outlet, inlet, ...)

  Info: Ignoring the following screen output fields:
  RMS_NU_TILDE
Screen output fields: INNER_ITER, RMS_DENSITY, RMS_MOMENTUM-X, RMS_MOMENTUM-Y, RMS_ENERGY, DRAG, LIFT, MOMENT_Z, LINSOL_RESIDUAL
History output group(s): ITER, RMS_RES, AERO_COEFF
Convergence field(s): LIFT
Warning: No (valid) fields chosen for time convergence monitoring. Time convergence monitoring inactive.
Volume output fields: COORDINATES, SOLUTION, PRIMITIVE

------------------- Geometry Preprocessing ( Zone 0 ) -------------------
Two dimensional problem.
66420 grid points before partitioning.
66015 volume elements before partitioning.
2 surface markers.
405 boundary elements in index 0 (Marker = far-field).
405 boundary elements in index 1 (Marker = wall).
Executing the partitioning functions.
Building the graph adjacency structure.
Calling ParMETIS... graph partitioning complete (858 edge cuts).
Distributing ParMETIS coloring.
Rebalancing vertices.
Rebalancing volume element connectivity.
Rebalancing markers and surface elements.
68136 vertices including ghost points. 
66869 interior elements including halo cells. 
66869 quadrilaterals.
Establishing MPI communication patterns.
Setting point connectivity.
Renumbering points (Reverse Cuthill McKee Ordering).
Recomputing point connectivity.
Setting element connectivity.
Checking the numerical grid orientation.
All volume elements are correctly orientend.
All surface elements are correctly orientend.
Identifying edges and vertices.
Setting the control volume structure.
Area of the computational grid: 176496.
Searching for the closest normal neighbors to the surfaces.
Storing a mapping from global to local point index.
Compute the surface curvature.
Max K: 1084.38. Mean K: 3.59038. Standard deviation K: 49.7608.
Checking for periodicity.
Computing mesh quality statistics for the dual control volumes.
+--------------------------------------------------------------+
|           Mesh Quality Metric|        Minimum|        Maximum|
+--------------------------------------------------------------+
|    Orthogonality Angle (deg.)|        82.7712|             90|
|     CV Face Area Aspect Ratio|        1.00383|          12833|
|           CV Sub-Volume Ratio|              1|         2.2315|
+--------------------------------------------------------------+
Finding max control volume width.
Communicating number of neighbors.
Wetted area = 5.32649 m.
Area projection in the x-plane = 0.29702 m, y-plane = 2.61984 m.
Max. coordinate in the x-direction = 2.62 m, y-direction = 0.165086 m.
Min. coordinate in the x-direction = 0 m, y-direction = -0.119236 m.
Computing wall distances.

-------------------- Solver Preprocessing ( Zone 0 ) --------------------
Viscous flow: Computing pressure using the ideal gas law
based on the free-stream temperature and a density computed
from the Reynolds number.
Force coefficients computed using free-stream values.

-- Models:
+------------------------------------------------------------------------------+
|          Viscosity Model|        Conductivity Model|              Fluid Model|
+------------------------------------------------------------------------------+
|               SUTHERLAND|          CONSTANT_PRANDTL|             STANDARD_AIR|
+------------------------------------------------------------------------------+
-- Fluid properties:
+------------------------------------------------------------------------------+
|                  Name|    Dim. value|    Ref. value|      Unit|Non-dim. value|
+------------------------------------------------------------------------------+
|        Ref. Viscosity|     1.716e-05|       115.582|   N.s/m^2|   1.48466e-07|
|      Sutherland Temp.|        273.15|       219.907|         K|       1.24212|
|     Sutherland Const.|         110.4|       219.907|         K|      0.502031|
+------------------------------------------------------------------------------+
|        Prandtl (Lam.)|             -|             -|         -|          0.72|
|       Prandtl (Turb.)|             -|             -|         -|           0.9|
+------------------------------------------------------------------------------+
|          Gas Constant|       287.058|       401.881|  N.m/kg.K|      0.714286|
|      Spec. Heat Ratio|             -|             -|         -|           1.4|
+------------------------------------------------------------------------------+
-- Initial and free-stream conditions:
+------------------------------------------------------------------------------+
|                  Name|    Dim. value|    Ref. value|      Unit|Non-dim. value|
+------------------------------------------------------------------------------+
|       Static Pressure|       24543.1|       34360.4|        Pa|      0.714286|
|               Density|      0.388796|      0.388796|    kg/m^3|             1|
|           Temperature|       219.907|       219.907|         K|             1|
|          Total Energy|        185600|       88376.4|   m^2/s^2|        2.1001|
|            Velocity-X|       234.817|       297.282|       m/s|       0.78988|
|            Velocity-Y|       4.09874|       297.282|       m/s|     0.0137874|
|    Velocity Magnitude|       234.852|       297.282|       m/s|          0.79|
+------------------------------------------------------------------------------+
|             Viscosity|   1.43939e-05|       115.582|   N.s/m^2|   1.24534e-07|
|          Conductivity|             -|       46450.2|   W/m^2.K|             -|
|     Turb. Kin. Energy|       206.834|       88376.4|   m^2/s^2|    0.00234038|
|     Spec. Dissipation|        558683|       297.282|       1/s|       1879.31|
+------------------------------------------------------------------------------+
|           Mach Number|             -|             -|         -|          0.79|
|       Reynolds Number|             -|             -|         -|   1.66204e+07|
+------------------------------------------------------------------------------+
Initialize Jacobian structure (Navier-Stokes). MG level: 0.
Initialize Jacobian structure (SST model).

------------------- Numerics Preprocessing ( Zone 0 ) -------------------

----------------- Integration Preprocessing ( Zone 0 ) ------------------

------------------- Iteration Preprocessing ( Zone 0 ) ------------------
Euler/Navier-Stokes/RANS fluid iteration.

------------------------------ Begin Solver -----------------------------

Simulation Run using the Single-zone Driver
WARNING: SU2 was not compiled for an AVX-capable architecture.
+--------------------------------------------------------------------------------------------------------------------+
|  Inner_Iter|    rms[Rho]|   rms[RhoU]|   rms[RhoV]|   rms[RhoE]|          CD|          CL|         CMz|   LinSolRes|
+--------------------------------------------------------------------------------------------------------------------+
|           0|   -2.817072|   -2.864841|   -2.700847|   -2.357209|    0.025512|    0.446038|    0.253135|   -1.088491|
|          25|   -4.317635|   -4.172482|   -4.544876|   -3.916951|    0.025749|    0.524117|    0.284880|   -0.854477|
|          50|   -4.698478|   -4.586925|   -4.847727|   -4.275529|    0.030446|    0.646804|    0.332513|   -0.751549|
|          75|   -5.076935|   -4.835239|   -5.109630|   -4.644122|    0.031898|    0.593109|    0.302047|   -0.818924|
|         100|   -5.240081|   -4.986468|   -5.270302|   -4.852394|    0.031204|    0.639975|    0.329484|   -0.828343|
+-----------------------------------------------------------------------+
|        File Writing Summary       |              Filename             |
+-----------------------------------------------------------------------+
|SU2 binary restart                 |restart.dat                        |
|Paraview                           |vol_solution.vtu                   |
|Paraview surface                   |surface.vtu                        |
+-----------------------------------------------------------------------+
+--------------------------------------------------------------------------------------------------------------------+
|  Inner_Iter|    rms[Rho]|   rms[RhoU]|   rms[RhoV]|   rms[RhoE]|          CD|          CL|         CMz|   LinSolRes|
+--------------------------------------------------------------------------------------------------------------------+
|         125|   -5.292160|   -5.173548|   -5.429920|   -4.921556|    0.028047|    0.631118|    0.323127|   -0.716286|
|         150|   -5.439014|   -5.486165|   -5.667176|   -5.072138|    0.029219|    0.632500|    0.320709|   -0.598364|
|         175|   -5.648771|   -5.859714|   -5.848400|   -5.324951|    0.029321|    0.632112|    0.316058|   -0.489925|
|         200|   -5.676979|   -5.871640|   -6.070082|   -5.340160|    0.028865|    0.621376|    0.308186|   -0.704320|
+-----------------------------------------------------------------------+
|        File Writing Summary       |              Filename             |
+-----------------------------------------------------------------------+
|SU2 binary restart                 |restart.dat                        |
|Paraview                           |vol_solution.vtu                   |
|Paraview surface                   |surface.vtu                        |
+-----------------------------------------------------------------------+
+--------------------------------------------------------------------------------------------------------------------+
|  Inner_Iter|    rms[Rho]|   rms[RhoU]|   rms[RhoV]|   rms[RhoE]|          CD|          CL|         CMz|   LinSolRes|
+--------------------------------------------------------------------------------------------------------------------+
|         225|   -5.800924|   -5.906319|   -6.183337|   -5.468672|    0.027487|    0.612538|    0.303031|   -0.510138|
|         250|   -5.855989|   -5.915332|   -6.173836|   -5.509859|    0.026084|    0.603765|    0.299250|   -0.564861|
|         275|   -5.839630|   -5.973727|   -6.290178|   -5.493566|    0.025574|    0.598015|    0.296716|   -0.861652|
|         300|   -5.939520|   -6.130725|   -6.283721|   -5.609531|    0.025669|    0.593449|    0.294066|   -0.445613|
+-----------------------------------------------------------------------+
|        File Writing Summary       |              Filename             |
+-----------------------------------------------------------------------+
|SU2 binary restart                 |restart.dat                        |
|Paraview                           |vol_solution.vtu                   |
|Paraview surface                   |surface.vtu                        |
+-----------------------------------------------------------------------+
+--------------------------------------------------------------------------------------------------------------------+
|  Inner_Iter|    rms[Rho]|   rms[RhoU]|   rms[RhoV]|   rms[RhoE]|          CD|          CL|         CMz|   LinSolRes|
+--------------------------------------------------------------------------------------------------------------------+
|         325|   -5.915651|   -6.033762|   -6.289120|   -5.572096|    0.025659|    0.590434|    0.291936|   -0.934708|
|         350|   -6.041010|   -6.305428|   -6.424735|   -5.714563|    0.025196|    0.587279|    0.289732|   -0.735061|
|         375|   -6.117528|   -6.362015|   -6.420240|   -5.775442|    0.024615|    0.583683|    0.287745|   -0.832077|
|         400|   -6.254955|   -6.383132|   -6.634746|   -5.881758|    0.024415|    0.580470|    0.286353|   -0.644112|
+-----------------------------------------------------------------------+
|        File Writing Summary       |              Filename             |
+-----------------------------------------------------------------------+
|SU2 binary restart                 |restart.dat                        |
|Paraview                           |vol_solution.vtu                   |
|Paraview surface                   |surface.vtu                        |
+-----------------------------------------------------------------------+
+--------------------------------------------------------------------------------------------------------------------+
|  Inner_Iter|    rms[Rho]|   rms[RhoU]|   rms[RhoV]|   rms[RhoE]|          CD|          CL|         CMz|   LinSolRes|
+--------------------------------------------------------------------------------------------------------------------+
|         425|   -6.324673|   -6.555418|   -6.595201|   -5.965886|    0.024785|    0.578341|    0.285632|   -0.627076|
|         450|   -6.509500|   -6.551110|   -6.985226|   -6.134497|    0.025008|    0.578305|    0.286206|   -0.752285|
|         475|   -6.453462|   -6.675021|   -6.845050|   -6.116631|    0.024864|    0.579471|    0.287342|   -0.632370|
|         500|   -6.453291|   -6.681400|   -6.869263|   -6.107258|    0.024799|    0.581174|    0.288587|   -0.705390|
+-----------------------------------------------------------------------+
|        File Writing Summary       |              Filename             |
+-----------------------------------------------------------------------+
|SU2 binary restart                 |restart.dat                        |
|Paraview                           |vol_solution.vtu                   |
|Paraview surface                   |surface.vtu                        |
+-----------------------------------------------------------------------+
+--------------------------------------------------------------------------------------------------------------------+
|  Inner_Iter|    rms[Rho]|   rms[RhoU]|   rms[RhoV]|   rms[RhoE]|          CD|          CL|         CMz|   LinSolRes|
+--------------------------------------------------------------------------------------------------------------------+
|         525|   -6.474228|   -6.729971|   -7.021928|   -6.122861|    0.024980|    0.583257|    0.289783|   -0.595097|
|         550|   -6.504534|   -6.834856|   -6.991092|   -6.161139|    0.025333|    0.585103|    0.290657|   -0.995716|
|         575|   -6.540560|   -6.859442|   -7.115089|   -6.196951|    0.025625|    0.586453|    0.291323|   -0.623286|
|         600|   -6.576359|   -6.920579|   -7.114877|   -6.246777|    0.025768|    0.587689|    0.292117|   -1.059329|
+-----------------------------------------------------------------------+
|        File Writing Summary       |              Filename             |
+-----------------------------------------------------------------------+
|SU2 binary restart                 |restart.dat                        |
|Paraview                           |vol_solution.vtu                   |
|Paraview surface                   |surface.vtu                        |
+-----------------------------------------------------------------------+
+--------------------------------------------------------------------------------------------------------------------+
|  Inner_Iter|    rms[Rho]|   rms[RhoU]|   rms[RhoV]|   rms[RhoE]|          CD|          CL|         CMz|   LinSolRes|
+--------------------------------------------------------------------------------------------------------------------+
|         625|   -6.654892|   -6.955176|   -7.205999|   -6.323174|    0.025748|    0.589020|    0.293147|   -0.965455|
|         650|   -6.685232|   -6.982097|   -7.198834|   -6.345620|    0.025730|    0.590257|    0.294001|   -0.690356|
|         675|   -6.774887|   -7.029631|   -7.178328|   -6.412026|    0.025820|    0.591542|    0.294647|   -0.657536|
|         700|   -6.874952|   -7.077104|   -7.403926|   -6.500949|    0.025976|    0.592363|    0.294780|   -0.714678|
+-----------------------------------------------------------------------+
|        File Writing Summary       |              Filename             |
+-----------------------------------------------------------------------+
|SU2 binary restart                 |restart.dat                        |
|Paraview                           |vol_solution.vtu                   |
|Paraview surface                   |surface.vtu                        |
+-----------------------------------------------------------------------+
+--------------------------------------------------------------------------------------------------------------------+
|  Inner_Iter|    rms[Rho]|   rms[RhoU]|   rms[RhoV]|   rms[RhoE]|          CD|          CL|         CMz|   LinSolRes|
+--------------------------------------------------------------------------------------------------------------------+
|         725|   -6.845819|   -6.934720|   -7.317095|   -6.489700|    0.026008|    0.592251|    0.294470|   -0.668611|
|         750|   -6.853423|   -7.027304|   -7.288049|   -6.509179|    0.025935|    0.591687|    0.294089|   -0.616877|
|         775|   -6.805298|   -7.098114|   -7.330949|   -6.478832|    0.025842|    0.591002|    0.293710|   -0.833564|
|         800|   -6.714150|   -6.927108|   -7.197583|   -6.385323|    0.025769|    0.590287|    0.293328|   -0.633107|
+-----------------------------------------------------------------------+
|        File Writing Summary       |              Filename             |
+-----------------------------------------------------------------------+
|SU2 binary restart                 |restart.dat                        |
|Paraview                           |vol_solution.vtu                   |
|Paraview surface                   |surface.vtu                        |
+-----------------------------------------------------------------------+
+--------------------------------------------------------------------------------------------------------------------+
|  Inner_Iter|    rms[Rho]|   rms[RhoU]|   rms[RhoV]|   rms[RhoE]|          CD|          CL|         CMz|   LinSolRes|
+--------------------------------------------------------------------------------------------------------------------+
|         825|   -6.782522|   -7.092265|   -7.213778|   -6.462051|    0.025722|    0.589598|    0.292917|   -0.826625|
|         850|   -6.732644|   -7.086850|   -7.325269|   -6.424380|    0.025684|    0.588821|    0.292382|   -0.759773|
|         875|   -6.712374|   -7.114858|   -7.342260|   -6.399750|    0.025640|    0.588071|    0.291845|   -0.697064|
|         900|   -6.773124|   -7.214628|   -7.311325|   -6.467514|    0.025570|    0.587174|    0.291242|   -0.715462|
+-----------------------------------------------------------------------+
|        File Writing Summary       |              Filename             |
+-----------------------------------------------------------------------+
|SU2 binary restart                 |restart.dat                        |
|Paraview                           |vol_solution.vtu                   |
|Paraview surface                   |surface.vtu                        |
+-----------------------------------------------------------------------+
+--------------------------------------------------------------------------------------------------------------------+
|  Inner_Iter|    rms[Rho]|   rms[RhoU]|   rms[RhoV]|   rms[RhoE]|          CD|          CL|         CMz|   LinSolRes|
+--------------------------------------------------------------------------------------------------------------------+
|         925|   -6.786245|   -7.076052|   -7.316165|   -6.465878|    0.025496|    0.586347|    0.290749|   -0.589989|
|         950|   -6.831907|   -7.150361|   -7.320322|   -6.522742|    0.025425|    0.585524|    0.290313|   -0.614834|
|         975|   -6.856550|   -7.092490|   -7.361652|   -6.545261|    0.025361|    0.584652|    0.289882|   -0.544428|
|        1000|   -6.850925|   -7.193374|   -7.337352|   -6.534628|    0.025326|    0.583898|    0.289494|   -0.634670|
+-----------------------------------------------------------------------+
|        File Writing Summary       |              Filename             |
+-----------------------------------------------------------------------+
|SU2 binary restart                 |restart.dat                        |
|Paraview                           |vol_solution.vtu                   |
|Paraview surface                   |surface.vtu                        |
+-----------------------------------------------------------------------+
+--------------------------------------------------------------------------------------------------------------------+
|  Inner_Iter|    rms[Rho]|   rms[RhoU]|   rms[RhoV]|   rms[RhoE]|          CD|          CL|         CMz|   LinSolRes|
+--------------------------------------------------------------------------------------------------------------------+
|        1025|   -6.908193|   -7.206789|   -7.357575|   -6.592018|    0.025310|    0.583223|    0.289094|   -0.682030|
|        1050|   -6.963662|   -7.252782|   -7.486211|   -6.648906|    0.025289|    0.582607|    0.288690|   -0.891340|
|        1075|   -6.983474|   -7.310171|   -7.508518|   -6.671540|    0.025245|    0.581997|    0.288323|   -0.911064|
|        1100|   -7.017700|   -7.360103|   -7.497812|   -6.702926|    0.025185|    0.581448|    0.288049|   -0.712771|
+-----------------------------------------------------------------------+
|        File Writing Summary       |              Filename             |
+-----------------------------------------------------------------------+
|SU2 binary restart                 |restart.dat                        |
|Paraview                           |vol_solution.vtu                   |
|Paraview surface                   |surface.vtu                        |
+-----------------------------------------------------------------------+
+--------------------------------------------------------------------------------------------------------------------+
|  Inner_Iter|    rms[Rho]|   rms[RhoU]|   rms[RhoV]|   rms[RhoE]|          CD|          CL|         CMz|   LinSolRes|
+--------------------------------------------------------------------------------------------------------------------+
|        1125|   -7.086565|   -7.360471|   -7.544294|   -6.757209|    0.025125|    0.580918|    0.287830|   -0.619597|
|        1150|   -7.109441|   -7.405539|   -7.612769|   -6.782419|    0.025100|    0.580492|    0.287667|   -0.696051|
|        1175|   -7.139829|   -7.419969|   -7.601257|   -6.814123|    0.025124|    0.580233|    0.287520|   -0.788557|
|        1200|   -7.206508|   -7.386992|   -7.664094|   -6.865076|    0.025155|    0.580009|    0.287338|   -0.793914|
+-----------------------------------------------------------------------+
|        File Writing Summary       |              Filename             |
+-----------------------------------------------------------------------+
|SU2 binary restart                 |restart.dat                        |
|Paraview                           |vol_solution.vtu                   |
|Paraview surface                   |surface.vtu                        |
+-----------------------------------------------------------------------+
+--------------------------------------------------------------------------------------------------------------------+
|  Inner_Iter|    rms[Rho]|   rms[RhoU]|   rms[RhoV]|   rms[RhoE]|          CD|          CL|         CMz|   LinSolRes|
+--------------------------------------------------------------------------------------------------------------------+
|        1225|   -7.271010|   -7.471996|   -7.735874|   -6.928469|    0.025148|    0.579732|    0.287166|   -0.851124|
|        1250|   -7.287969|   -7.533437|   -7.626372|   -6.947684|    0.025094|    0.579425|    0.287083|   -1.083711|
|        1275|   -7.313628|   -7.492730|   -7.722482|   -6.959691|    0.025059|    0.579273|    0.287095|   -0.862835|
|        1300|   -7.315036|   -7.557795|   -7.714008|   -6.973834|    0.025069|    0.579240|    0.287115|   -0.969309|
+-----------------------------------------------------------------------+
|        File Writing Summary       |              Filename             |
+-----------------------------------------------------------------------+
|SU2 binary restart                 |restart.dat                        |
|Paraview                           |vol_solution.vtu                   |
|Paraview surface                   |surface.vtu                        |
+-----------------------------------------------------------------------+
+--------------------------------------------------------------------------------------------------------------------+
|  Inner_Iter|    rms[Rho]|   rms[RhoU]|   rms[RhoV]|   rms[RhoE]|          CD|          CL|         CMz|   LinSolRes|
+--------------------------------------------------------------------------------------------------------------------+
|        1325|   -7.289118|   -7.508638|   -7.622166|   -6.950727|    0.025110|    0.579249|    0.287076|   -0.991100|
|        1350|   -7.302845|   -7.442336|   -7.681383|   -6.951755|    0.025142|    0.579213|    0.286994|   -0.750653|
|        1375|   -7.223684|   -6.857718|   -7.653291|   -6.783566|    0.025148|    0.579091|    0.286885|   -0.944010|
|        1400|   -7.309824|   -7.568301|   -7.649238|   -6.982714|    0.025120|    0.578902|    0.286802|   -1.067284|
+-----------------------------------------------------------------------+
|        File Writing Summary       |              Filename             |
+-----------------------------------------------------------------------+
|SU2 binary restart                 |restart.dat                        |
|Paraview                           |vol_solution.vtu                   |
|Paraview surface                   |surface.vtu                        |
+-----------------------------------------------------------------------+
+--------------------------------------------------------------------------------------------------------------------+
|  Inner_Iter|    rms[Rho]|   rms[RhoU]|   rms[RhoV]|   rms[RhoE]|          CD|          CL|         CMz|   LinSolRes|
+--------------------------------------------------------------------------------------------------------------------+
|        1425|   -7.294604|   -7.502759|   -7.618454|   -6.960573|    0.025081|    0.578729|    0.286770|   -0.821281|
|        1450|   -7.286479|   -7.426599|   -7.723240|   -6.945603|    0.025053|    0.578606|    0.286768|   -0.687640|
|        1475|   -7.295279|   -7.578276|   -7.724010|   -6.973414|    0.025052|    0.578545|    0.286761|   -0.869451|
|        1500|   -7.259717|   -7.529396|   -7.606831|   -6.940379|    0.025077|    0.578514|    0.286710|   -0.969348|
+-----------------------------------------------------------------------+
|        File Writing Summary       |              Filename             |
+-----------------------------------------------------------------------+
|SU2 binary restart                 |restart.dat                        |
|Paraview                           |vol_solution.vtu                   |
|Paraview surface                   |surface.vtu                        |
+-----------------------------------------------------------------------+
+--------------------------------------------------------------------------------------------------------------------+
|  Inner_Iter|    rms[Rho]|   rms[RhoU]|   rms[RhoV]|   rms[RhoE]|          CD|          CL|         CMz|   LinSolRes|
+--------------------------------------------------------------------------------------------------------------------+
|        1525|   -7.268326|   -7.460850|   -7.635089|   -6.936482|    0.025105|    0.578454|    0.286619|   -0.960646|
|        1550|   -7.276500|   -7.485804|   -7.749412|   -6.948949|    0.025114|    0.578313|    0.286488|   -0.820941|
|        1575|   -7.256417|   -7.527249|   -7.655252|   -6.937624|    0.025096|    0.578108|    0.286368|   -0.650482|
|        1600|   -7.228631|   -7.479400|   -7.583036|   -6.907880|    0.025058|    0.577884|    0.286282|   -0.725769|
+-----------------------------------------------------------------------+
|        File Writing Summary       |              Filename             |
+-----------------------------------------------------------------------+
|SU2 binary restart                 |restart.dat                        |
|Paraview                           |vol_solution.vtu                   |
|Paraview surface                   |surface.vtu                        |
+-----------------------------------------------------------------------+
+--------------------------------------------------------------------------------------------------------------------+
|  Inner_Iter|    rms[Rho]|   rms[RhoU]|   rms[RhoV]|   rms[RhoE]|          CD|          CL|         CMz|   LinSolRes|
+--------------------------------------------------------------------------------------------------------------------+
|        1625|   -7.263067|   -7.469571|   -7.679950|   -6.936773|    0.025023|    0.577686|    0.286227|   -0.787589|
|        1650|   -7.289882|   -7.562190|   -7.774643|   -6.974821|    0.025006|    0.577533|    0.286178|   -0.849572|
|        1675|   -7.264005|   -7.598822|   -7.659204|   -6.955581|    0.025014|    0.577429|    0.286117|   -0.847736|
|        1700|   -7.262209|   -7.503366|   -7.621168|   -6.946756|    0.025034|    0.577320|    0.286019|   -0.889573|
+-----------------------------------------------------------------------+
|        File Writing Summary       |              Filename             |
+-----------------------------------------------------------------------+
|SU2 binary restart                 |restart.dat                        |
|Paraview                           |vol_solution.vtu                   |
|Paraview surface                   |surface.vtu                        |
+-----------------------------------------------------------------------+
+--------------------------------------------------------------------------------------------------------------------+
|  Inner_Iter|    rms[Rho]|   rms[RhoU]|   rms[RhoV]|   rms[RhoE]|          CD|          CL|         CMz|   LinSolRes|
+--------------------------------------------------------------------------------------------------------------------+
|        1725|   -7.288543|   -7.447051|   -7.738836|   -6.961240|    0.025049|    0.577174|    0.285893|   -0.884017|
|        1750|   -7.293005|   -7.516325|   -7.764761|   -6.978587|    0.025041|    0.576951|    0.285746|   -0.723128|
|        1775|   -7.275045|   -7.560808|   -7.658315|   -6.968667|    0.025006|    0.576667|    0.285610|   -0.919560|
|        1800|   -7.290042|   -7.521482|   -7.705373|   -6.975030|    0.024971|    0.576434|    0.285526|   -0.739501|
+-----------------------------------------------------------------------+
|        File Writing Summary       |              Filename             |
+-----------------------------------------------------------------------+
|SU2 binary restart                 |restart.dat                        |
|Paraview                           |vol_solution.vtu                   |
|Paraview surface                   |surface.vtu                        |
+-----------------------------------------------------------------------+
+--------------------------------------------------------------------------------------------------------------------+
|  Inner_Iter|    rms[Rho]|   rms[RhoU]|   rms[RhoV]|   rms[RhoE]|          CD|          CL|         CMz|   LinSolRes|
+--------------------------------------------------------------------------------------------------------------------+
|        1825|   -7.321351|   -7.577317|   -7.824008|   -7.011309|    0.024949|    0.576237|    0.285452|   -0.894359|
|        1850|   -7.285920|   -7.603714|   -7.745403|   -6.985528|    0.024949|    0.576089|    0.285376|   -0.742077|
|        1875|   -7.284175|   -7.545928|   -7.669569|   -6.965870|    0.024962|    0.575931|    0.285262|   -0.800000|
|        1900|   -7.297748|   -7.507169|   -7.768949|   -6.976587|    0.024973|    0.575742|    0.285119|   -0.646797|
+-----------------------------------------------------------------------+
|        File Writing Summary       |              Filename             |
+-----------------------------------------------------------------------+
|SU2 binary restart                 |restart.dat                        |
|Paraview                           |vol_solution.vtu                   |
|Paraview surface                   |surface.vtu                        |
+-----------------------------------------------------------------------+
+--------------------------------------------------------------------------------------------------------------------+
|  Inner_Iter|    rms[Rho]|   rms[RhoU]|   rms[RhoV]|   rms[RhoE]|          CD|          CL|         CMz|   LinSolRes|
+--------------------------------------------------------------------------------------------------------------------+
|        1925|   -7.311882|   -7.593602|   -7.794532|   -7.002562|    0.024964|    0.575495|    0.284965|   -0.629041|
|        1950|   -7.282159|   -7.597296|   -7.672205|   -6.976247|    0.024937|    0.575239|    0.284839|   -0.690305|
|        1975|   -7.316077|   -7.626490|   -7.716848|   -7.004045|    0.024907|    0.575020|    0.284750|   -0.695632|
|        2000|   -7.351623|   -7.644498|   -7.826494|   -7.040507|    0.024883|    0.574794|    0.284656|   -0.640969|
+-----------------------------------------------------------------------+
|        File Writing Summary       |              Filename             |
+-----------------------------------------------------------------------+
|SU2 binary restart                 |restart.dat                        |
|Paraview                           |vol_solution.vtu                   |
|Paraview surface                   |surface.vtu                        |
+-----------------------------------------------------------------------+
+--------------------------------------------------------------------------------------------------------------------+
|  Inner_Iter|    rms[Rho]|   rms[RhoU]|   rms[RhoV]|   rms[RhoE]|          CD|          CL|         CMz|   LinSolRes|
+--------------------------------------------------------------------------------------------------------------------+
|        2025|   -7.340264|   -7.721882|   -7.764451|   -7.038020|    0.024880|    0.574616|    0.284566|   -0.760879|
|        2050|   -7.341117|   -7.639021|   -7.730989|   -7.033147|    0.024890|    0.574458|    0.284462|   -0.815595|
|        2075|   -7.377367|   -7.645257|   -7.860504|   -7.072569|    0.024896|    0.574287|    0.284343|   -0.839479|
|        2100|   -7.372216|   -7.709080|   -7.871372|   -7.075761|    0.024889|    0.574068|    0.284210|   -0.810089|
+-----------------------------------------------------------------------+
|        File Writing Summary       |              Filename             |
+-----------------------------------------------------------------------+
|SU2 binary restart                 |restart.dat                        |
|Paraview                           |vol_solution.vtu                   |
|Paraview surface                   |surface.vtu                        |
+-----------------------------------------------------------------------+
+--------------------------------------------------------------------------------------------------------------------+
|  Inner_Iter|    rms[Rho]|   rms[RhoU]|   rms[RhoV]|   rms[RhoE]|          CD|          CL|         CMz|   LinSolRes|
+--------------------------------------------------------------------------------------------------------------------+
|        2125|   -7.403766|   -7.721263|   -7.825358|   -7.103369|    0.024870|    0.573863|    0.284105|   -0.868444|
|        2150|   -7.426286|   -7.696475|   -7.847177|   -7.122770|    0.024845|    0.573654|    0.284012|   -0.761953|
|        2175|   -7.407198|   -7.669418|   -7.943130|   -7.102531|    0.024825|    0.573456|    0.283927|   -0.825643|
|        2200|   -7.410146|   -7.725914|   -7.921261|   -7.116171|    0.024818|    0.573287|    0.283843|   -0.831336|
+-----------------------------------------------------------------------+
|        File Writing Summary       |              Filename             |
+-----------------------------------------------------------------------+
|SU2 binary restart                 |restart.dat                        |
|Paraview                           |vol_solution.vtu                   |
|Paraview surface                   |surface.vtu                        |
+-----------------------------------------------------------------------+
+--------------------------------------------------------------------------------------------------------------------+
|  Inner_Iter|    rms[Rho]|   rms[RhoU]|   rms[RhoV]|   rms[RhoE]|          CD|          CL|         CMz|   LinSolRes|
+--------------------------------------------------------------------------------------------------------------------+
|        2225|   -7.430239|   -7.712728|   -7.876718|   -7.132579|    0.024820|    0.573138|    0.283755|   -0.815066|
|        2250|   -7.439676|   -7.673919|   -7.939061|   -7.138294|    0.024823|    0.572989|    0.283657|   -0.694760|
|        2275|   -7.437665|   -7.663754|   -7.978049|   -7.134304|    0.024822|    0.572826|    0.283554|   -0.698034|
|        2300|   -7.463915|   -7.714970|   -7.965348|   -7.168836|    0.024810|    0.572647|    0.283452|   -0.794984|
+-----------------------------------------------------------------------+
|        File Writing Summary       |              Filename             |
+-----------------------------------------------------------------------+
|SU2 binary restart                 |restart.dat                        |
|Paraview                           |vol_solution.vtu                   |
|Paraview surface                   |surface.vtu                        |
+-----------------------------------------------------------------------+
+--------------------------------------------------------------------------------------------------------------------+
|  Inner_Iter|    rms[Rho]|   rms[RhoU]|   rms[RhoV]|   rms[RhoE]|          CD|          CL|         CMz|   LinSolRes|
+--------------------------------------------------------------------------------------------------------------------+
|        2325|   -7.481383|   -7.785978|   -7.926005|   -7.181004|    0.024792|    0.572458|    0.283357|   -0.802132|
|        2350|   -7.478128|   -7.771380|   -7.965260|   -7.174408|    0.024774|    0.572282|    0.283276|   -0.781868|
|        2375|   -7.502629|   -7.810317|   -8.005000|   -7.203944|    0.024760|    0.572108|    0.283194|   -0.606911|
|        2400|   -7.511986|   -7.832670|   -7.965014|   -7.217612|    0.024755|    0.571951|    0.283112|   -0.676536|
+-----------------------------------------------------------------------+
|        File Writing Summary       |              Filename             |
+-----------------------------------------------------------------------+
|SU2 binary restart                 |restart.dat                        |
|Paraview                           |vol_solution.vtu                   |
|Paraview surface                   |surface.vtu                        |
+-----------------------------------------------------------------------+
+--------------------------------------------------------------------------------------------------------------------+
|  Inner_Iter|    rms[Rho]|   rms[RhoU]|   rms[RhoV]|   rms[RhoE]|          CD|          CL|         CMz|   LinSolRes|
+--------------------------------------------------------------------------------------------------------------------+
|        2425|   -7.509160|   -7.763910|   -7.952521|   -7.198869|    0.024756|    0.571757|    0.282995|   -0.636967|
|        2450|   -7.470418|   -7.649361|   -7.946151|   -7.150813|    0.024753|    0.571569|    0.282879|   -0.721713|
|        2475|   -7.569175|   -7.737680|   -8.030149|   -7.263877|    0.024743|    0.571406|    0.282787|   -0.566922|
|        2500|   -7.523290|   -7.839027|   -8.002392|   -7.219204|    0.024728|    0.571249|    0.282708|   -0.725741|
+-----------------------------------------------------------------------+
|        File Writing Summary       |              Filename             |
+-----------------------------------------------------------------------+
|SU2 binary restart                 |restart.dat                        |
|Paraview                           |vol_solution.vtu                   |
|Paraview surface                   |surface.vtu                        |
+-----------------------------------------------------------------------+
+--------------------------------------------------------------------------------------------------------------------+
|  Inner_Iter|    rms[Rho]|   rms[RhoU]|   rms[RhoV]|   rms[RhoE]|          CD|          CL|         CMz|   LinSolRes|
+--------------------------------------------------------------------------------------------------------------------+
|        2525|   -7.551236|   -7.846854|   -8.050815|   -7.246334|    0.024713|    0.571092|    0.282636|   -0.707704|
|        2550|   -7.572953|   -7.876106|   -8.095984|   -7.271275|    0.024703|    0.570952|    0.282571|   -0.614614|
|        2575|   -7.588470|   -7.906629|   -8.090281|   -7.287089|    0.024699|    0.570831|    0.282509|   -0.751871|
|        2600|   -7.584124|   -7.884023|   -8.033179|   -7.283406|    0.024700|    0.570711|    0.282438|   -0.812256|
+-----------------------------------------------------------------------+
|        File Writing Summary       |              Filename             |
+-----------------------------------------------------------------------+
|SU2 binary restart                 |restart.dat                        |
|Paraview                           |vol_solution.vtu                   |
|Paraview surface                   |surface.vtu                        |
+-----------------------------------------------------------------------+
+--------------------------------------------------------------------------------------------------------------------+
|  Inner_Iter|    rms[Rho]|   rms[RhoU]|   rms[RhoV]|   rms[RhoE]|          CD|          CL|         CMz|   LinSolRes|
+--------------------------------------------------------------------------------------------------------------------+
|        2625|   -7.623304|   -7.900466|   -8.071794|   -7.320925|    0.024699|    0.570590|    0.282363|   -0.738628|
|        2650|   -7.630610|   -7.936573|   -7.976636|   -7.323482|    0.024691|    0.570419|    0.282265|   -0.631534|
|        2675|   -7.416039|   -7.831407|   -7.871589|   -7.129237|    0.024676|    0.570250|    0.282182|   -0.792704|
|        2700|   -7.664045|   -7.952122|   -8.120935|   -7.356267|    0.024663|    0.570110|    0.282120|   -0.644388|
+-----------------------------------------------------------------------+
|        File Writing Summary       |              Filename             |
+-----------------------------------------------------------------------+
|SU2 binary restart                 |restart.dat                        |
|Paraview                           |vol_solution.vtu                   |
|Paraview surface                   |surface.vtu                        |
+-----------------------------------------------------------------------+
+--------------------------------------------------------------------------------------------------------------------+
|  Inner_Iter|    rms[Rho]|   rms[RhoU]|   rms[RhoV]|   rms[RhoE]|          CD|          CL|         CMz|   LinSolRes|
+--------------------------------------------------------------------------------------------------------------------+
|        2725|   -7.715384|   -8.009129|   -8.175325|   -7.420130|    0.024658|    0.569982|    0.282059|   -0.656725|
|        2750|   -7.723582|   -7.989293|   -8.201498|   -7.427420|    0.024659|    0.569884|    0.282002|   -0.734829|
|        2775|   -7.745430|   -8.007767|   -8.272613|   -7.453994|    0.024659|    0.569779|    0.281938|   -0.705974|
|        2800|   -7.753552|   -8.036739|   -8.232963|   -7.462772|    0.024653|    0.569677|    0.281882|   -0.655930|
+-----------------------------------------------------------------------+
|        File Writing Summary       |              Filename             |
+-----------------------------------------------------------------------+
|SU2 binary restart                 |restart.dat                        |
|Paraview                           |vol_solution.vtu                   |
|Paraview surface                   |surface.vtu                        |
+-----------------------------------------------------------------------+
+--------------------------------------------------------------------------------------------------------------------+
|  Inner_Iter|    rms[Rho]|   rms[RhoU]|   rms[RhoV]|   rms[RhoE]|          CD|          CL|         CMz|   LinSolRes|
+--------------------------------------------------------------------------------------------------------------------+
|        2825|   -7.785369|   -8.082617|   -8.267866|   -7.496083|    0.024645|    0.569579|    0.281835|   -0.781265|
|        2850|   -7.792431|   -8.081009|   -8.315001|   -7.498471|    0.024637|    0.569490|    0.281797|   -0.841261|
|        2875|   -7.795745|   -8.097084|   -8.333854|   -7.501320|    0.024632|    0.569413|    0.281763|   -0.796520|
|        2900|   -7.814070|   -8.091939|   -8.302676|   -7.517730|    0.024632|    0.569351|    0.281730|   -0.789464|
+-----------------------------------------------------------------------+
|        File Writing Summary       |              Filename             |
+-----------------------------------------------------------------------+
|SU2 binary restart                 |restart.dat                        |
|Paraview                           |vol_solution.vtu                   |
|Paraview surface                   |surface.vtu                        |
+-----------------------------------------------------------------------+
+--------------------------------------------------------------------------------------------------------------------+
|  Inner_Iter|    rms[Rho]|   rms[RhoU]|   rms[RhoV]|   rms[RhoE]|          CD|          CL|         CMz|   LinSolRes|
+--------------------------------------------------------------------------------------------------------------------+
|        2925|   -7.813079|   -8.075937|   -8.299012|   -7.515956|    0.024632|    0.569290|    0.281694|   -0.836750|
|        2950|   -7.826652|   -8.068562|   -8.329178|   -7.530411|    0.024633|    0.569226|    0.281654|   -0.644247|
|        2975|   -7.805491|   -8.082314|   -8.349339|   -7.517268|    0.024630|    0.569155|    0.281612|   -0.816420|
|        3000|   -7.806884|   -8.073375|   -8.311882|   -7.518451|    0.024625|    0.569082|    0.281575|   -0.873786|
+-----------------------------------------------------------------------+
|        File Writing Summary       |              Filename             |
+-----------------------------------------------------------------------+
|SU2 binary restart                 |restart.dat                        |
|Paraview                           |vol_solution.vtu                   |
|Paraview surface                   |surface.vtu                        |
+-----------------------------------------------------------------------+
+--------------------------------------------------------------------------------------------------------------------+
|  Inner_Iter|    rms[Rho]|   rms[RhoU]|   rms[RhoV]|   rms[RhoE]|          CD|          CL|         CMz|   LinSolRes|
+--------------------------------------------------------------------------------------------------------------------+
|        3025|   -7.784424|   -8.053640|   -8.302520|   -7.494634|    0.024618|    0.569010|    0.281541|   -0.794571|
|        3050|   -7.833205|   -8.060485|   -8.348940|   -7.542283|    0.024612|    0.568941|    0.281510|   -0.854074|
|        3075|   -7.835153|   -8.083376|   -8.345331|   -7.541976|    0.024608|    0.568868|    0.281476|   -0.684200|
|        3100|   -7.829635|   -8.084204|   -8.326504|   -7.530726|    0.024608|    0.568802|    0.281439|   -0.597813|
+-----------------------------------------------------------------------+
|        File Writing Summary       |              Filename             |
+-----------------------------------------------------------------------+
|SU2 binary restart                 |restart.dat                        |
|Paraview                           |vol_solution.vtu                   |
|Paraview surface                   |surface.vtu                        |
+-----------------------------------------------------------------------+
+--------------------------------------------------------------------------------------------------------------------+
|  Inner_Iter|    rms[Rho]|   rms[RhoU]|   rms[RhoV]|   rms[RhoE]|          CD|          CL|         CMz|   LinSolRes|
+--------------------------------------------------------------------------------------------------------------------+
|        3125|   -7.802602|   -8.049205|   -8.323633|   -7.506094|    0.024609|    0.568744|    0.281404|   -0.605976|
|        3150|   -7.847323|   -8.067156|   -8.366483|   -7.551205|    0.024607|    0.568684|    0.281368|   -0.683453|
|        3175|   -7.854421|   -8.058822|   -8.362160|   -7.560981|    0.024604|    0.568619|    0.281332|   -0.586512|
|        3200|   -7.792359|   -8.043646|   -8.338015|   -7.490420|    0.024598|    0.568552|    0.281299|   -0.636489|
+-----------------------------------------------------------------------+
|        File Writing Summary       |              Filename             |
+-----------------------------------------------------------------------+
|SU2 binary restart                 |restart.dat                        |
|Paraview                           |vol_solution.vtu                   |
|Paraview surface                   |surface.vtu                        |
+-----------------------------------------------------------------------+
+--------------------------------------------------------------------------------------------------------------------+
|  Inner_Iter|    rms[Rho]|   rms[RhoU]|   rms[RhoV]|   rms[RhoE]|          CD|          CL|         CMz|   LinSolRes|
+--------------------------------------------------------------------------------------------------------------------+
|        3225|   -7.816985|   -8.068099|   -8.377920|   -7.511322|    0.024593|    0.568486|    0.281269|   -0.624936|
|        3250|   -7.874113|   -8.146896|   -8.434946|   -7.580352|    0.024588|    0.568425|    0.281241|   -0.733900|
|        3275|   -7.912165|   -8.163372|   -8.411876|   -7.621399|    0.024587|    0.568352|    0.281203|   -0.705301|
|        3300|   -7.799582|   -7.920605|   -8.354922|   -7.461489|    0.024587|    0.568297|    0.281171|   -0.191333|
+-----------------------------------------------------------------------+
|        File Writing Summary       |              Filename             |
+-----------------------------------------------------------------------+
|SU2 binary restart                 |restart.dat                        |
|Paraview                           |vol_solution.vtu                   |
|Paraview surface                   |surface.vtu                        |
+-----------------------------------------------------------------------+
+--------------------------------------------------------------------------------------------------------------------+
|  Inner_Iter|    rms[Rho]|   rms[RhoU]|   rms[RhoV]|   rms[RhoE]|          CD|          CL|         CMz|   LinSolRes|
+--------------------------------------------------------------------------------------------------------------------+
|        3325|   -7.923096|   -8.108016|   -8.409500|   -7.624144|    0.024586|    0.568244|    0.281139|   -0.669646|
|        3350|   -7.928156|   -8.151006|   -8.398570|   -7.632517|    0.024583|    0.568176|    0.281101|   -0.689512|
|        3375|   -7.922822|   -8.162977|   -8.389955|   -7.626060|    0.024577|    0.568103|    0.281065|   -0.683230|
|        3400|   -7.934126|   -8.183639|   -8.429678|   -7.641171|    0.024572|    0.568034|    0.281034|   -0.601926|
+-----------------------------------------------------------------------+
|        File Writing Summary       |              Filename             |
+-----------------------------------------------------------------------+
|SU2 binary restart                 |restart.dat                        |
|Paraview                           |vol_solution.vtu                   |
|Paraview surface                   |surface.vtu                        |
+-----------------------------------------------------------------------+
+--------------------------------------------------------------------------------------------------------------------+
|  Inner_Iter|    rms[Rho]|   rms[RhoU]|   rms[RhoV]|   rms[RhoE]|          CD|          CL|         CMz|   LinSolRes|
+--------------------------------------------------------------------------------------------------------------------+
|        3425|   -7.936921|   -8.150585|   -8.455835|   -7.648775|    0.024569|    0.567972|    0.281004|   -0.638410|
|        3450|   -7.903807|   -8.114383|   -8.421200|   -7.613153|    0.024568|    0.567925|    0.280978|   -0.621742|
|        3475|   -7.932582|   -8.161142|   -8.449863|   -7.637387|    0.024568|    0.567876|    0.280950|   -0.794514|
|        3500|   -7.945267|   -8.177492|   -8.468710|   -7.649171|    0.024566|    0.567822|    0.280917|   -0.694256|
+-----------------------------------------------------------------------+
|        File Writing Summary       |              Filename             |
+-----------------------------------------------------------------------+
|SU2 binary restart                 |restart.dat                        |
|Paraview                           |vol_solution.vtu                   |
|Paraview surface                   |surface.vtu                        |
+-----------------------------------------------------------------------+
+--------------------------------------------------------------------------------------------------------------------+
|  Inner_Iter|    rms[Rho]|   rms[RhoU]|   rms[RhoV]|   rms[RhoE]|          CD|          CL|         CMz|   LinSolRes|
+--------------------------------------------------------------------------------------------------------------------+
|        3525|   -7.947933|   -8.196575|   -8.467394|   -7.656207|    0.024563|    0.567756|    0.280881|   -0.685620|
|        3550|   -7.940062|   -8.193690|   -8.450868|   -7.647242|    0.024558|    0.567689|    0.280847|   -0.657074|
|        3575|   -7.946632|   -8.207525|   -8.473096|   -7.654984|    0.024553|    0.567623|    0.280815|   -0.665801|
|        3600|   -7.941148|   -8.222594|   -8.487251|   -7.652818|    0.024549|    0.567562|    0.280785|   -0.676913|
+-----------------------------------------------------------------------+
|        File Writing Summary       |              Filename             |
+-----------------------------------------------------------------------+
|SU2 binary restart                 |restart.dat                        |
|Paraview                           |vol_solution.vtu                   |
|Paraview surface                   |surface.vtu                        |
+-----------------------------------------------------------------------+
+--------------------------------------------------------------------------------------------------------------------+
|  Inner_Iter|    rms[Rho]|   rms[RhoU]|   rms[RhoV]|   rms[RhoE]|          CD|          CL|         CMz|   LinSolRes|
+--------------------------------------------------------------------------------------------------------------------+
|        3625|   -7.929548|   -8.202670|   -8.457364|   -7.641757|    0.024548|    0.567505|    0.280754|   -0.801507|
|        3650|   -7.930735|   -8.203732|   -8.481761|   -7.641719|    0.024547|    0.567449|    0.280722|   -0.661288|
|        3675|   -7.944127|   -8.175684|   -8.496410|   -7.653468|    0.024546|    0.567392|    0.280690|   -0.815648|
|        3700|   -7.938475|   -8.179533|   -8.492669|   -7.647382|    0.024542|    0.567336|    0.280661|   -0.678090|
+-----------------------------------------------------------------------+
|        File Writing Summary       |              Filename             |
+-----------------------------------------------------------------------+
|SU2 binary restart                 |restart.dat                        |
|Paraview                           |vol_solution.vtu                   |
|Paraview surface                   |surface.vtu                        |
+-----------------------------------------------------------------------+
+--------------------------------------------------------------------------------------------------------------------+
|  Inner_Iter|    rms[Rho]|   rms[RhoU]|   rms[RhoV]|   rms[RhoE]|          CD|          CL|         CMz|   LinSolRes|
+--------------------------------------------------------------------------------------------------------------------+
|        3725|   -7.990426|   -8.236713|   -8.534760|   -7.706451|    0.024539|    0.567286|    0.280637|   -0.653566|
|        3750|   -7.997084|   -8.246783|   -8.551088|   -7.710363|    0.024534|    0.567221|    0.280606|   -0.670113|
|        3775|   -7.999608|   -8.260547|   -8.554152|   -7.710954|    0.024532|    0.567160|    0.280575|   -0.640058|
|        3800|   -7.998441|   -8.237585|   -8.544629|   -7.708073|    0.024531|    0.567100|    0.280541|   -0.640513|
+-----------------------------------------------------------------------+
|        File Writing Summary       |              Filename             |
+-----------------------------------------------------------------------+
|SU2 binary restart                 |restart.dat                        |
|Paraview                           |vol_solution.vtu                   |
|Paraview surface                   |surface.vtu                        |
+-----------------------------------------------------------------------+
+--------------------------------------------------------------------------------------------------------------------+
|  Inner_Iter|    rms[Rho]|   rms[RhoU]|   rms[RhoV]|   rms[RhoE]|          CD|          CL|         CMz|   LinSolRes|
+--------------------------------------------------------------------------------------------------------------------+
|        3825|   -8.004697|   -8.244128|   -8.555573|   -7.717221|    0.024530|    0.567037|    0.280506|   -0.670092|
|        3850|   -8.001830|   -8.252154|   -8.539540|   -7.713322|    0.024526|    0.566971|    0.280470|   -0.656119|
|        3875|   -8.005494|   -8.251070|   -8.532998|   -7.715984|    0.024521|    0.566904|    0.280437|   -0.629239|
|        3900|   -8.012862|   -8.287674|   -8.555945|   -7.726695|    0.024518|    0.566847|    0.280409|   -0.680152|
+-----------------------------------------------------------------------+
|        File Writing Summary       |              Filename             |
+-----------------------------------------------------------------------+
|SU2 binary restart                 |restart.dat                        |
|Paraview                           |vol_solution.vtu                   |
|Paraview surface                   |surface.vtu                        |
+-----------------------------------------------------------------------+
+--------------------------------------------------------------------------------------------------------------------+
|  Inner_Iter|    rms[Rho]|   rms[RhoU]|   rms[RhoV]|   rms[RhoE]|          CD|          CL|         CMz|   LinSolRes|
+--------------------------------------------------------------------------------------------------------------------+
|        3925|   -8.004941|   -8.267826|   -8.540002|   -7.716980|    0.024516|    0.566797|    0.280383|   -0.619078|
|        3950|   -8.008203|   -8.265721|   -8.552301|   -7.721025|    0.024515|    0.566754|    0.280360|   -0.683032|
|        3975|   -7.975748|   -8.194971|   -8.481861|   -7.687031|    0.024514|    0.566713|    0.280336|   -0.601568|
|        4000|   -8.012252|   -8.281057|   -8.556953|   -7.727445|    0.024512|    0.566668|    0.280312|   -0.633128|
+-----------------------------------------------------------------------+
|        File Writing Summary       |              Filename             |
+-----------------------------------------------------------------------+
|SU2 binary restart                 |restart.dat                        |
|Paraview                           |vol_solution.vtu                   |
|Paraview surface                   |surface.vtu                        |
+-----------------------------------------------------------------------+
+--------------------------------------------------------------------------------------------------------------------+
|  Inner_Iter|    rms[Rho]|   rms[RhoU]|   rms[RhoV]|   rms[RhoE]|          CD|          CL|         CMz|   LinSolRes|
+--------------------------------------------------------------------------------------------------------------------+
|        4025|   -8.013738|   -8.301834|   -8.563364|   -7.728061|    0.024510|    0.566625|    0.280289|   -0.720251|
|        4050|   -8.011439|   -8.293908|   -8.550936|   -7.722655|    0.024507|    0.566574|    0.280264|   -0.624568|
|        4075|   -8.016467|   -8.303441|   -8.557776|   -7.727841|    0.024504|    0.566524|    0.280239|   -0.626737|
|        4100|   -8.024113|   -8.321923|   -8.556042|   -7.736318|    0.024502|    0.566476|    0.280215|   -0.644447|
+-----------------------------------------------------------------------+
|        File Writing Summary       |              Filename             |
+-----------------------------------------------------------------------+
|SU2 binary restart                 |restart.dat                        |
|Paraview                           |vol_solution.vtu                   |
|Paraview surface                   |surface.vtu                        |
+-----------------------------------------------------------------------+
+--------------------------------------------------------------------------------------------------------------------+
|  Inner_Iter|    rms[Rho]|   rms[RhoU]|   rms[RhoV]|   rms[RhoE]|          CD|          CL|         CMz|   LinSolRes|
+--------------------------------------------------------------------------------------------------------------------+
|        4125|   -8.027041|   -8.328489|   -8.561080|   -7.738401|    0.024501|    0.566430|    0.280191|   -0.662598|
|        4150|   -8.029318|   -8.330646|   -8.574601|   -7.740001|    0.024499|    0.566385|    0.280166|   -0.675887|
|        4175|   -8.034230|   -8.340157|   -8.584131|   -7.745075|    0.024498|    0.566339|    0.280141|   -0.681498|
|        4200|   -8.039653|   -8.349662|   -8.588334|   -7.750477|    0.024495|    0.566292|    0.280117|   -0.684069|
+-----------------------------------------------------------------------+
|        File Writing Summary       |              Filename             |
+-----------------------------------------------------------------------+
|SU2 binary restart                 |restart.dat                        |
|Paraview                           |vol_solution.vtu                   |
|Paraview surface                   |surface.vtu                        |
+-----------------------------------------------------------------------+
+--------------------------------------------------------------------------------------------------------------------+
|  Inner_Iter|    rms[Rho]|   rms[RhoU]|   rms[RhoV]|   rms[RhoE]|          CD|          CL|         CMz|   LinSolRes|
+--------------------------------------------------------------------------------------------------------------------+
|        4225|   -8.047467|   -8.355264|   -8.601775|   -7.758241|    0.024492|    0.566247|    0.280095|   -0.688259|
|        4250|   -8.052790|   -8.355130|   -8.612531|   -7.763973|    0.024490|    0.566204|    0.280074|   -0.689028|
|        4275|   -8.051300|   -8.346913|   -8.607163|   -7.763217|    0.024489|    0.566163|    0.280053|   -0.687260|
|        4300|   -8.039835|   -8.341524|   -8.585359|   -7.752935|    0.024488|    0.566123|    0.280032|   -0.676003|
+-----------------------------------------------------------------------+
|        File Writing Summary       |              Filename             |
+-----------------------------------------------------------------------+
|SU2 binary restart                 |restart.dat                        |
|Paraview                           |vol_solution.vtu                   |
|Paraview surface                   |surface.vtu                        |
+-----------------------------------------------------------------------+
+--------------------------------------------------------------------------------------------------------------------+
|  Inner_Iter|    rms[Rho]|   rms[RhoU]|   rms[RhoV]|   rms[RhoE]|          CD|          CL|         CMz|   LinSolRes|
+--------------------------------------------------------------------------------------------------------------------+
|        4325|   -8.039626|   -8.344020|   -8.591301|   -7.751331|    0.024487|    0.566083|    0.280010|   -0.684814|
|        4350|   -8.044123|   -8.353027|   -8.599629|   -7.755563|    0.024485|    0.566041|    0.279988|   -0.689697|
|        4375|   -8.050302|   -8.360155|   -8.602005|   -7.762710|    0.024483|    0.565999|    0.279967|   -0.689039|
|        4400|   -8.056458|   -8.365556|   -8.608195|   -7.769749|    0.024481|    0.565957|    0.279946|   -0.685602|
+-----------------------------------------------------------------------+
|        File Writing Summary       |              Filename             |
+-----------------------------------------------------------------------+
|SU2 binary restart                 |restart.dat                        |
|Paraview                           |vol_solution.vtu                   |
|Paraview surface                   |surface.vtu                        |
+-----------------------------------------------------------------------+
+--------------------------------------------------------------------------------------------------------------------+
|  Inner_Iter|    rms[Rho]|   rms[RhoU]|   rms[RhoV]|   rms[RhoE]|          CD|          CL|         CMz|   LinSolRes|
+--------------------------------------------------------------------------------------------------------------------+
|        4425|   -8.056473|   -8.366827|   -8.611883|   -7.766907|    0.024479|    0.565917|    0.279926|   -0.667566|
|        4450|   -8.052189|   -8.361486|   -8.609496|   -7.758297|    0.024478|    0.565877|    0.279905|   -0.651438|
|        4475|   -8.050735|   -8.357168|   -8.611619|   -7.754390|    0.024476|    0.565836|    0.279884|   -0.646718|
|        4500|   -8.052764|   -8.356676|   -8.614384|   -7.755877|    0.024475|    0.565795|    0.279862|   -0.648051|
+-----------------------------------------------------------------------+
|        File Writing Summary       |              Filename             |
+-----------------------------------------------------------------------+
|SU2 binary restart                 |restart.dat                        |
|Paraview                           |vol_solution.vtu                   |
|Paraview surface                   |surface.vtu                        |
+-----------------------------------------------------------------------+
+--------------------------------------------------------------------------------------------------------------------+
|  Inner_Iter|    rms[Rho]|   rms[RhoU]|   rms[RhoV]|   rms[RhoE]|          CD|          CL|         CMz|   LinSolRes|
+--------------------------------------------------------------------------------------------------------------------+
|        4525|   -8.057158|   -8.351704|   -8.616255|   -7.760905|    0.024473|    0.565753|    0.279840|   -0.645673|
|        4550|   -8.033715|   -7.981602|   -8.484934|   -7.720145|    0.024471|    0.565714|    0.279820|   -0.306757|
|        4575|   -8.110821|   -8.286515|   -8.625325|   -7.813065|    0.024469|    0.565677|    0.279801|   -0.661638|
|        4600|   -8.109919|   -8.350967|   -8.601891|   -7.813936|    0.024467|    0.565636|    0.279780|   -0.669258|
+-----------------------------------------------------------------------+
|        File Writing Summary       |              Filename             |
+-----------------------------------------------------------------------+
|SU2 binary restart                 |restart.dat                        |
|Paraview                           |vol_solution.vtu                   |
|Paraview surface                   |surface.vtu                        |
+-----------------------------------------------------------------------+
+--------------------------------------------------------------------------------------------------------------------+
|  Inner_Iter|    rms[Rho]|   rms[RhoU]|   rms[RhoV]|   rms[RhoE]|          CD|          CL|         CMz|   LinSolRes|
+--------------------------------------------------------------------------------------------------------------------+
|        4625|   -8.105903|   -8.377285|   -8.567635|   -7.810736|    0.024466|    0.565595|    0.279758|   -0.683904|
|        4650|   -8.093605|   -8.387369|   -8.592482|   -7.801336|    0.024464|    0.565553|    0.279735|   -0.708113|
|        4675|   -8.102815|   -8.405486|   -8.643034|   -7.811529|    0.024463|    0.565514|    0.279714|   -0.840336|
|        4700|   -8.112412|   -8.423540|   -8.670448|   -7.824191|    0.024461|    0.565478|    0.279695|   -0.875981|
+-----------------------------------------------------------------------+
|        File Writing Summary       |              Filename             |
+-----------------------------------------------------------------------+
|SU2 binary restart                 |restart.dat                        |
|Paraview                           |vol_solution.vtu                   |
|Paraview surface                   |surface.vtu                        |
+-----------------------------------------------------------------------+
+--------------------------------------------------------------------------------------------------------------------+
|  Inner_Iter|    rms[Rho]|   rms[RhoU]|   rms[RhoV]|   rms[RhoE]|          CD|          CL|         CMz|   LinSolRes|
+--------------------------------------------------------------------------------------------------------------------+
|        4725|   -8.126709|   -8.432684|   -8.686031|   -7.841351|    0.024459|    0.565438|    0.279675|   -0.876343|
|        4750|   -8.133056|   -8.418955|   -8.687649|   -7.846698|    0.024457|    0.565402|    0.279656|   -0.628305|
|        4775|   -8.139840|   -8.410424|   -8.704704|   -7.855298|    0.024455|    0.565367|    0.279638|   -0.785462|
|        4800|   -8.142786|   -8.355051|   -8.696423|   -7.854212|    0.024454|    0.565335|    0.279621|   -0.605838|
+-----------------------------------------------------------------------+
|        File Writing Summary       |              Filename             |
+-----------------------------------------------------------------------+
|SU2 binary restart                 |restart.dat                        |
|Paraview                           |vol_solution.vtu                   |
|Paraview surface                   |surface.vtu                        |
+-----------------------------------------------------------------------+
+--------------------------------------------------------------------------------------------------------------------+
|  Inner_Iter|    rms[Rho]|   rms[RhoU]|   rms[RhoV]|   rms[RhoE]|          CD|          CL|         CMz|   LinSolRes|
+--------------------------------------------------------------------------------------------------------------------+
|        4825|   -8.127675|   -8.327196|   -8.673240|   -7.837471|    0.024453|    0.565303|    0.279603|   -0.676537|
|        4850|   -8.127332|   -8.386917|   -8.687439|   -7.836398|    0.024451|    0.565268|    0.279584|   -0.788292|
|        4875|   -8.138439|   -8.427421|   -8.684739|   -7.849789|    0.024449|    0.565232|    0.279565|   -0.830988|
|        4900|   -8.151695|   -8.438645|   -8.693338|   -7.865333|    0.024448|    0.565199|    0.279548|   -0.852544|
+-----------------------------------------------------------------------+
|        File Writing Summary       |              Filename             |
+-----------------------------------------------------------------------+
|SU2 binary restart                 |restart.dat                        |
|Paraview                           |vol_solution.vtu                   |
|Paraview surface                   |surface.vtu                        |
+-----------------------------------------------------------------------+
+--------------------------------------------------------------------------------------------------------------------+
|  Inner_Iter|    rms[Rho]|   rms[RhoU]|   rms[RhoV]|   rms[RhoE]|          CD|          CL|         CMz|   LinSolRes|
+--------------------------------------------------------------------------------------------------------------------+
|        4925|   -8.173276|   -8.451654|   -8.707449|   -7.888530|    0.024446|    0.565166|    0.279531|   -0.859277|
|        4950|   -8.180096|   -8.437115|   -8.690824|   -7.891903|    0.024444|    0.565123|    0.279509|   -0.668527|
|        4975|   -8.195741|   -8.443088|   -8.709430|   -7.908355|    0.024442|    0.565080|    0.279487|   -0.661085|
[...]
|SU2 binary restart                 |restart.dat                        |
|Paraview                           |vol_solution.vtu                   |
|Paraview surface                   |surface.vtu                        |
+-----------------------------------------------------------------------+
+--------------------------------------------------------------------------------------------------------------------+
|  Inner_Iter|    rms[Rho]|   rms[RhoU]|   rms[RhoV]|   rms[RhoE]|          CD|          CL|         CMz|   LinSolRes|
+--------------------------------------------------------------------------------------------------------------------+
|        5825|   -8.441076|   -8.747202|   -8.987126|   -8.159342|    0.024401|    0.564175|    0.279014|   -0.665023|
|        5850|   -8.449861|   -8.753064|   -8.994166|   -8.167925|    0.024400|    0.564155|    0.279004|   -0.658329|
|        5875|   -8.457172|   -8.753445|   -8.998657|   -8.174962|    0.024399|    0.564136|    0.278994|   -0.647299|
|        5900|   -8.459139|   -8.751043|   -8.995622|   -8.176532|    0.024399|    0.564117|    0.278984|   -0.627382|
+-----------------------------------------------------------------------+
|        File Writing Summary       |              Filename             |
+-----------------------------------------------------------------------+
|SU2 binary restart                 |restart.dat                        |
|Paraview                           |vol_solution.vtu                   |
|Paraview surface                   |surface.vtu                        |
+-----------------------------------------------------------------------+
+--------------------------------------------------------------------------------------------------------------------+
|  Inner_Iter|    rms[Rho]|   rms[RhoU]|   rms[RhoV]|   rms[RhoE]|          CD|          CL|         CMz|   LinSolRes|
+--------------------------------------------------------------------------------------------------------------------+
|        5925|   -8.460582|   -8.759508|   -8.999032|   -8.179693|    0.024398|    0.564100|    0.278975|   -0.581871|
|        5950|   -8.457637|   -8.751659|   -8.994296|   -8.175248|    0.024397|    0.564085|    0.278967|   -0.664398|
|        5975|   -8.474733|   -8.748575|   -9.020316|   -8.190732|    0.024396|    0.564070|    0.278960|   -0.640766|
|        6000|   -8.503152|   -8.750992|   -9.045878|   -8.221016|    0.024396|    0.564055|    0.278952|   -0.653044|
+-----------------------------------------------------------------------+
|        File Writing Summary       |              Filename             |
+-----------------------------------------------------------------------+
|SU2 binary restart                 |restart.dat                        |
|Paraview                           |vol_solution.vtu                   |
|Paraview surface                   |surface.vtu                        |
+-----------------------------------------------------------------------+
+--------------------------------------------------------------------------------------------------------------------+
|  Inner_Iter|    rms[Rho]|   rms[RhoU]|   rms[RhoV]|   rms[RhoE]|          CD|          CL|         CMz|   LinSolRes|
+--------------------------------------------------------------------------------------------------------------------+
|        6025|   -8.529363|   -8.759420|   -9.066763|   -8.249794|    0.024395|    0.564041|    0.278945|   -0.682676|
|        6050|   -8.550391|   -8.766517|   -9.083557|   -8.271457|    0.024395|    0.564028|    0.278938|   -0.693082|
|        6075|   -8.564836|   -8.767511|   -9.083165|   -8.284353|    0.024394|    0.564014|    0.278931|   -0.707827|
|        6100|   -8.572220|   -8.794108|   -9.091715|   -8.288241|    0.024393|    0.563999|    0.278923|   -0.645552|
+-----------------------------------------------------------------------+
|        File Writing Summary       |              Filename             |
+-----------------------------------------------------------------------+
|SU2 binary restart                 |restart.dat                        |
|Paraview                           |vol_solution.vtu                   |
|Paraview surface                   |surface.vtu                        |
+-----------------------------------------------------------------------+
+--------------------------------------------------------------------------------------------------------------------+
|  Inner_Iter|    rms[Rho]|   rms[RhoU]|   rms[RhoV]|   rms[RhoE]|          CD|          CL|         CMz|   LinSolRes|
+--------------------------------------------------------------------------------------------------------------------+
|        6125|   -8.574445|   -8.823588|   -9.095294|   -8.287475|    0.024393|    0.563983|    0.278914|   -0.668446|
|        6150|   -8.576525|   -8.843515|   -9.097910|   -8.287111|    0.024392|    0.563967|    0.278906|   -0.666596|
|        6175|   -8.576701|   -8.837400|   -9.097789|   -8.284904|    0.024391|    0.563950|    0.278897|   -0.629674|
|        6200|   -8.583282|   -8.845451|   -9.106049|   -8.290660|    0.024390|    0.563934|    0.278889|   -0.623034|
+-----------------------------------------------------------------------+
|        File Writing Summary       |              Filename             |
+-----------------------------------------------------------------------+
|SU2 binary restart                 |restart.dat                        |
|Paraview                           |vol_solution.vtu                   |
|Paraview surface                   |surface.vtu                        |
+-----------------------------------------------------------------------+
+--------------------------------------------------------------------------------------------------------------------+
|  Inner_Iter|    rms[Rho]|   rms[RhoU]|   rms[RhoV]|   rms[RhoE]|          CD|          CL|         CMz|   LinSolRes|
+--------------------------------------------------------------------------------------------------------------------+
|        6225|   -8.593457|   -8.856857|   -9.116443|   -8.300695|    0.024390|    0.563919|    0.278881|   -0.621261|
|        6250|   -8.604552|   -8.869568|   -9.128107|   -8.312168|    0.024389|    0.563904|    0.278873|   -0.624762|
|        6275|   -8.616882|   -8.885547|   -9.140820|   -8.325170|    0.024388|    0.563889|    0.278865|   -0.631938|
|        6300|   -8.630184|   -8.903760|   -9.153084|   -8.339446|    0.024388|    0.563875|    0.278858|   -0.642379|
+-----------------------------------------------------------------------+
|        File Writing Summary       |              Filename             |
+-----------------------------------------------------------------------+
|SU2 binary restart                 |restart.dat                        |
|Paraview                           |vol_solution.vtu                   |
|Paraview surface                   |surface.vtu                        |
+-----------------------------------------------------------------------+
+--------------------------------------------------------------------------------------------------------------------+
|  Inner_Iter|    rms[Rho]|   rms[RhoU]|   rms[RhoV]|   rms[RhoE]|          CD|          CL|         CMz|   LinSolRes|
+--------------------------------------------------------------------------------------------------------------------+
|        6325|   -8.644811|   -8.923465|   -9.168075|   -8.355370|    0.024387|    0.563860|    0.278850|   -0.656335|
|        6350|   -8.660080|   -8.943466|   -9.183644|   -8.372221|    0.024386|    0.563847|    0.278843|   -0.674064|
|        6375|   -8.675356|   -8.962017|   -9.199879|   -8.389046|    0.024386|    0.563834|    0.278837|   -0.694428|
|        6400|   -8.692533|   -8.987921|   -9.226023|   -8.409925|    0.024385|    0.563821|    0.278830|   -0.707822|
+-----------------------------------------------------------------------+
|        File Writing Summary       |              Filename             |
+-----------------------------------------------------------------------+
|SU2 binary restart                 |restart.dat                        |
|Paraview                           |vol_solution.vtu                   |
|Paraview surface                   |surface.vtu                        |
+-----------------------------------------------------------------------+
+--------------------------------------------------------------------------------------------------------------------+
|  Inner_Iter|    rms[Rho]|   rms[RhoU]|   rms[RhoV]|   rms[RhoE]|          CD|          CL|         CMz|   LinSolRes|
+--------------------------------------------------------------------------------------------------------------------+
|        6425|   -8.709019|   -9.004835|   -9.245806|   -8.425472|    0.024385|    0.563809|    0.278824|   -0.825401|
|        6450|   -8.715515|   -9.013406|   -9.254255|   -8.431377|    0.024384|    0.563800|    0.278819|   -0.827792|
|        6475|   -8.724063|   -9.023227|   -9.263011|   -8.439243|    0.024384|    0.563790|    0.278814|   -0.828142|
|        6500|   -8.729487|   -9.021869|   -9.260034|   -8.441521|    0.024383|    0.563780|    0.278809|   -0.833724|
+-----------------------------------------------------------------------+
|        File Writing Summary       |              Filename             |
+-----------------------------------------------------------------------+
|SU2 binary restart                 |restart.dat                        |
|Paraview                           |vol_solution.vtu                   |
|Paraview surface                   |surface.vtu                        |
+-----------------------------------------------------------------------+
+--------------------------------------------------------------------------------------------------------------------+
|  Inner_Iter|    rms[Rho]|   rms[RhoU]|   rms[RhoV]|   rms[RhoE]|          CD|          CL|         CMz|   LinSolRes|
+--------------------------------------------------------------------------------------------------------------------+
|        6525|   -8.744326|   -9.042109|   -9.282637|   -8.458443|    0.024383|    0.563771|    0.278804|   -0.826613|
|        6550|   -8.754291|   -9.051664|   -9.293305|   -8.467927|    0.024382|    0.563762|    0.278800|   -0.823514|
|        6575|   -8.763772|   -9.059320|   -9.302813|   -8.477095|    0.024382|    0.563753|    0.278795|   -0.822112|
|        6600|   -8.769830|   -9.054003|   -9.300797|   -8.479893|    0.024382|    0.563744|    0.278790|   -0.603996|
+-----------------------------------------------------------------------+
|        File Writing Summary       |              Filename             |
+-----------------------------------------------------------------------+
|SU2 binary restart                 |restart.dat                        |
|Paraview                           |vol_solution.vtu                   |
|Paraview surface                   |surface.vtu                        |
+-----------------------------------------------------------------------+
+--------------------------------------------------------------------------------------------------------------------+
|  Inner_Iter|    rms[Rho]|   rms[RhoU]|   rms[RhoV]|   rms[RhoE]|          CD|          CL|         CMz|   LinSolRes|
+--------------------------------------------------------------------------------------------------------------------+
|        6625|   -8.780734|   -9.061996|   -9.311190|   -8.490637|    0.024381|    0.563735|    0.278786|   -0.825114|
|        6650|   -8.794434|   -9.082047|   -9.333111|   -8.507178|    0.024381|    0.563727|    0.278782|   -0.815693|
|        6675|   -8.803457|   -9.090576|   -9.341237|   -8.516243|    0.024381|    0.563719|    0.278778|   -0.813403|
|        6700|   -8.812173|   -9.097320|   -9.348772|   -8.525104|    0.024380|    0.563712|    0.278774|   -0.812782|
+-----------------------------------------------------------------------+
|        File Writing Summary       |              Filename             |
+-----------------------------------------------------------------------+
|SU2 binary restart                 |restart.dat                        |
|Paraview                           |vol_solution.vtu                   |
|Paraview surface                   |surface.vtu                        |
+-----------------------------------------------------------------------+
+--------------------------------------------------------------------------------------------------------------------+
|  Inner_Iter|    rms[Rho]|   rms[RhoU]|   rms[RhoV]|   rms[RhoE]|          CD|          CL|         CMz|   LinSolRes|
+--------------------------------------------------------------------------------------------------------------------+
|        6725|   -8.810780|   -9.072147|   -9.326133|   -8.516444|    0.024380|    0.563703|    0.278769|   -0.832166|
|        6750|   -8.832725|   -9.118057|   -9.368536|   -8.545729|    0.024380|    0.563695|    0.278765|   -0.810083|
|        6775|   -8.839952|   -9.126315|   -9.375907|   -8.553073|    0.024379|    0.563688|    0.278762|   -0.812031|
|        6800|   -8.845570|   -9.132185|   -9.380198|   -8.559107|    0.024379|    0.563681|    0.278758|   -0.704536|
+-----------------------------------------------------------------------+
|        File Writing Summary       |              Filename             |
+-----------------------------------------------------------------------+
|SU2 binary restart                 |restart.dat                        |
|Paraview                           |vol_solution.vtu                   |
|Paraview surface                   |surface.vtu                        |
+-----------------------------------------------------------------------+
+--------------------------------------------------------------------------------------------------------------------+
|  Inner_Iter|    rms[Rho]|   rms[RhoU]|   rms[RhoV]|   rms[RhoE]|          CD|          CL|         CMz|   LinSolRes|
+--------------------------------------------------------------------------------------------------------------------+
|        6825|   -8.857384|   -9.147453|   -9.391783|   -8.570809|    0.024379|    0.563673|    0.278754|   -0.702359|
|        6850|   -8.864479|   -9.157844|   -9.398046|   -8.578100|    0.024378|    0.563666|    0.278750|   -0.819470|
|        6875|   -8.870412|   -9.167639|   -9.402799|   -8.584233|    0.024378|    0.563660|    0.278747|   -0.820810|
|        6900|   -8.871965|   -9.163756|   -9.393450|   -8.583057|    0.024378|    0.563653|    0.278744|   -0.829076|
+-----------------------------------------------------------------------+
|        File Writing Summary       |              Filename             |
+-----------------------------------------------------------------------+
|SU2 binary restart                 |restart.dat                        |
|Paraview                           |vol_solution.vtu                   |
|Paraview surface                   |surface.vtu                        |
+-----------------------------------------------------------------------+
+--------------------------------------------------------------------------------------------------------------------+
|  Inner_Iter|    rms[Rho]|   rms[RhoU]|   rms[RhoV]|   rms[RhoE]|          CD|          CL|         CMz|   LinSolRes|
+--------------------------------------------------------------------------------------------------------------------+
|        6925|   -8.883922|   -9.186111|   -9.413759|   -8.598208|    0.024377|    0.563646|    0.278740|   -0.821814|
|        6950|   -8.892301|   -9.197938|   -9.420873|   -8.606617|    0.024377|    0.563640|    0.278737|   -0.818353|
|        6975|   -8.896669|   -9.205375|   -9.424244|   -8.611031|    0.024377|    0.563634|    0.278734|   -0.815587|
|        7000|   -8.901746|   -9.212850|   -9.428333|   -8.616129|    0.024377|    0.563628|    0.278731|   -0.811383|
+-----------------------------------------------------------------------+
|        File Writing Summary       |              Filename             |
+-----------------------------------------------------------------------+
|SU2 binary restart                 |restart.dat                        |
|Paraview                           |vol_solution.vtu                   |
|Paraview surface                   |surface.vtu                        |
+-----------------------------------------------------------------------+
+--------------------------------------------------------------------------------------------------------------------+
|  Inner_Iter|    rms[Rho]|   rms[RhoU]|   rms[RhoV]|   rms[RhoE]|          CD|          CL|         CMz|   LinSolRes|
+--------------------------------------------------------------------------------------------------------------------+
|        7025|   -8.900058|   -9.206450|   -9.412416|   -8.611423|    0.024376|    0.563622|    0.278728|   -0.812453|
|        7050|   -8.902606|   -9.212452|   -9.409809|   -8.613630|    0.024376|    0.563615|    0.278724|   -0.684058|
|        7075|   -8.901573|   -9.218892|   -9.402759|   -8.612153|    0.024376|    0.563608|    0.278721|   -0.662963|
|        7100|   -8.892376|   -9.220483|   -9.386097|   -8.602217|    0.024376|    0.563602|    0.278717|   -0.635138|
+-----------------------------------------------------------------------+
|        File Writing Summary       |              Filename             |
+-----------------------------------------------------------------------+
|SU2 binary restart                 |restart.dat                        |
|Paraview                           |vol_solution.vtu                   |
|Paraview surface                   |surface.vtu                        |
+-----------------------------------------------------------------------+
+--------------------------------------------------------------------------------------------------------------------+
|  Inner_Iter|    rms[Rho]|   rms[RhoU]|   rms[RhoV]|   rms[RhoE]|          CD|          CL|         CMz|   LinSolRes|
+--------------------------------------------------------------------------------------------------------------------+
|        7116|   -8.889363|   -9.235141|   -9.389406|   -8.602435|    0.024375|    0.563597|    0.278715|   -0.604297|

----------------------------- Solver Exit -------------------------------
All convergence criteria satisfied.
+-----------------------------------------------------------------------+
|      Convergence Field     |     Value    |   Criterion  |  Converged |
+-----------------------------------------------------------------------+
|                  Cauchy[CL]|   4.99997e-07|       < 5e-07|         Yes|
+-----------------------------------------------------------------------+
-------------------------------------------------------------------------
+-----------------------------------------------------------------------+
|        File Writing Summary       |              Filename             |
+-----------------------------------------------------------------------+
|SU2 binary restart                 |restart.dat                        |
|Paraview                           |vol_solution.vtu                   |
|Paraview surface                   |surface.vtu                        |
+-----------------------------------------------------------------------+

------------------------- Solver Postprocessing -------------------------
Deleted CNumerics container.
Deleted CIntegration container.
Deleted CSolver container.
Deleted CIteration container.
Deleted CInterface container.
Deleted CGeometry container.
Deleted CFreeFormDefBox class.
Deleted CSurfaceMovement class.
Deleted CVolumetricMovement class.
Deleted CConfig container.
Deleted nInst container.
Deleted COutput class.
-------------------------------------------------------------------------

------------------------- Exit Success (SU2_CFD) ------------------------

