WARNING: The current SST-1994m model is inconsistent with literature. We recommend using the SST-2003m model.
In SU2 v8 the 2003m model will become default, and the inconsistency will be fixed.

-------------------------------------------------------------------------
WARNING: The current SST-1994m model is inconsistent with literature. We recommend using the SST-2003m model.
In SU2 v8 the 2003m model will become default, and the inconsistency will be fixed.
|    ___ _   _ ___                                                      |
|   / __| | | |_  )   Release 7.5.1 "Blackbird"                         |

|   \__ \ |_| |/ /                                                      |
-------------------------------------------------------------------------
|   |___/\___//___|   Suite (Computational Fluid Dynamics Code)         |
|    ___ _   _ ___                                                      |
|                                                                       |
|   / __| | | |_  )   Release 7.5.1 "Blackbird"                         |
-------------------------------------------------------------------------
|   \__ \ |_| |/ /                                                      |
| SU2 Project Website: https://su2code.github.io                        |
|   |___/\___//___|   Suite (Computational Fluid Dynamics Code)         |
|                                                                       |
|                                                                       |
| The SU2 Project is maintained by the SU2 Foundation                   |
-------------------------------------------------------------------------
| (http://su2foundation.org)                                            |
-------------------------------------------------------------------------
| SU2 Project Website: https://su2code.github.io                        |
| Copyright 2012-2023, SU2 Contributors                                 |
|                                                                       |
|                                                                       |
| The SU2 Project is maintained by the SU2 Foundation                   |
| SU2 is free software; you can redistribute it and/or                  |
| (http://su2foundation.org)                                            |
| modify it under the terms of the GNU Lesser General Public            |
-------------------------------------------------------------------------
| License as published by the Free Software Foundation; either          |
| Copyright 2012-2023, SU2 Contributors                                 |
| version 2.1 of the License, or (at your option) any later version.    |
|                                                                       |
|                                                                       |
| SU2 is free software; you can redistribute it and/or                  |
| SU2 is distributed in the hope that it will be useful,                |
| modify it under the terms of the GNU Lesser General Public            |
| but WITHOUT ANY WARRANTY; without even the implied warranty of        |
| License as published by the Free Software Foundation; either          |
| MERCHANTABILITY or FITNESS FOR A PARTICULAR PURPOSE. See the GNU      |
| version 2.1 of the License, or (at your option) any later version.    |
| Lesser General Public License for more details.                       |
|                                                                       |
|                                                                       |
| SU2 is distributed in the hope that it will be useful,                |
| You should have received a copy of the GNU Lesser General Public      |
| but WITHOUT ANY WARRANTY; without even the implied warranty of        |
| License along with SU2. If not, see <http://www.gnu.org/licenses/>.   |
| MERCHANTABILITY or FITNESS FOR A PARTICULAR PURPOSE. See the GNU      |
-------------------------------------------------------------------------
| Lesser General Public License for more details.                       |
|                                                                       |
| You should have received a copy of the GNU Lesser General Public      |
| License along with SU2. If not, see <http://www.gnu.org/licenses/>.   |
-------------------------------------------------------------------------
WARNING: The current SST-1994m model is inconsistent with literature. We recommend using the SST-2003m model.
In SU2 v8 the 2003m model will become default, and the inconsistency will be fixed.

-------------------------------------------------------------------------
|    ___ _   _ ___                                                      |
|   / __| | | |_  )   Release 7.5.1 "Blackbird"                         |
|   \__ \ |_| |/ /                                                      |
|   |___/\___//___|   Suite (Computational Fluid Dynamics Code)         |
|                                                                       |
-------------------------------------------------------------------------
| SU2 Project Website: https://su2code.github.io                        |
|                                                                       |
| The SU2 Project is maintained by the SU2 Foundation                   |
| (http://su2foundation.org)                                            |
-------------------------------------------------------------------------
| Copyright 2012-2023, SU2 Contributors                                 |
|                                                                       |
| SU2 is free software; you can redistribute it and/or                  |
| modify it under the terms of the GNU Lesser General Public            |
| License as published by the Free Software Foundation; either          |
| version 2.1 of the License, or (at your option) any later version.    |
|                                                                       |
| SU2 is distributed in the hope that it will be useful,                |
| but WITHOUT ANY WARRANTY; without even the implied warranty of        |
| MERCHANTABILITY or FITNESS FOR A PARTICULAR PURPOSE. See the GNU      |
| Lesser General Public License for more details.                       |
|                                                                       |
| You should have received a copy of the GNU Lesser General Public      |
WARNING: The current SST-1994m model is inconsistent with literature. We recommend using the SST-2003m model.
In SU2 v8 the 2003m model will become default, and the inconsistency will be fixed.
| License along with SU2. If not, see <http://www.gnu.org/licenses/>.   |

-------------------------------------------------------------------------
Parsing config file for zone 0
WARNING: The current SST-1994m model is inconsistent with literature. We recommend using the SST-2003m model.
In SU2 v8 the 2003m model will become default, and the inconsistency will be fixed.

Parsing config file for zone 0
WARNING: The current SST-1994m model is inconsistent with literature. We recommend using the SST-2003m model.
In SU2 v8 the 2003m model will become default, and the inconsistency will be fixed.

-------------------------------------------------------------------------
|    ___ _   _ ___                                                      |
|   / __| | | |_  )   Release 7.5.1 "Blackbird"                         |
|   \__ \ |_| |/ /                                                      |
|   |___/\___//___|   Suite (Computational Fluid Dynamics Code)         |
|                                                                       |
-------------------------------------------------------------------------
| SU2 Project Website: https://su2code.github.io                        |
|                                                                       |
WARNING: The current SST-1994m model is inconsistent with literature. We recommend using the SST-2003m model.
In SU2 v8 the 2003m model will become default, and the inconsistency will be fixed.
| The SU2 Project is maintained by the SU2 Foundation                   |
| (http://su2foundation.org)                                            |

-------------------------------------------------------------------------
-------------------------------------------------------------------------
| Copyright 2012-2023, SU2 Contributors                                 |
|    ___ _   _ ___                                                      |
|                                                                       |
|   / __| | | |_  )   Release 7.5.1 "Blackbird"                         |
| SU2 is free software; you can redistribute it and/or                  |
|   \__ \ |_| |/ /                                                      |
| modify it under the terms of the GNU Lesser General Public            |
|   |___/\___//___|   Suite (Computational Fluid Dynamics Code)         |
| License as published by the Free Software Foundation; either          |
|                                                                       |
| version 2.1 of the License, or (at your option) any later version.    |
-------------------------------------------------------------------------
|                                                                       |
| SU2 Project Website: https://su2code.github.io                        |
| SU2 is distributed in the hope that it will be useful,                |
WARNING: The current SST-1994m model is inconsistent with literature. We recommend using the SST-2003m model.
In SU2 v8 the 2003m model will become default, and the inconsistency will be fixed.
|                                                                       |
| but WITHOUT ANY WARRANTY; without even the implied warranty of        |

| The SU2 Project is maintained by the SU2 Foundation                   |
| MERCHANTABILITY or FITNESS FOR A PARTICULAR PURPOSE. See the GNU      |
Parsing config file for zone 0
| (http://su2foundation.org)                                            |
| Lesser General Public License for more details.                       |
-------------------------------------------------------------------------
|                                                                       |
| Copyright 2012-2023, SU2 Contributors                                 |
| You should have received a copy of the GNU Lesser General Public      |
|                                                                       |
| License along with SU2. If not, see <http://www.gnu.org/licenses/>.   |
WARNING: The current SST-1994m model is inconsistent with literature. We recommend using the SST-2003m model.
In SU2 v8 the 2003m model will become default, and the inconsistency will be fixed.
| SU2 is free software; you can redistribute it and/or                  |
-------------------------------------------------------------------------

| modify it under the terms of the GNU Lesser General Public            |
----------------- Physical Case Definition ( Zone 0 ) -------------------
| License as published by the Free Software Foundation; either          |
Compressible RANS equations.
| version 2.1 of the License, or (at your option) any later version.    |
Turbulence model: Menter's k-omega SST-1994m with no production modification.
|                                                                       |
Hybrid RANS/LES: No Hybrid RANS/LES
| SU2 is distributed in the hope that it will be useful,                |
Mach number: 0.21.
Angle of attack (AoA): 0 deg, and angle of sideslip (AoS): 0 deg.
| but WITHOUT ANY WARRANTY; without even the implied warranty of        |
Reynolds number: 1.28186e+07. Reference length 2.62.
| MERCHANTABILITY or FITNESS FOR A PARTICULAR PURPOSE. See the GNU      |
No restart solution, use the values at infinity (freestream).
| Lesser General Public License for more details.                       |
Non-Dimensional simulation (V=Mach, Rho=1.0, T=1.0 at the farfield).
|                                                                       |
The reference area is 2.62 m^2.
| You should have received a copy of the GNU Lesser General Public      |
The semi-span will be computed using the max y(3D) value.
| License along with SU2. If not, see <http://www.gnu.org/licenses/>.   |
The reference length is 2.62 m.
-------------------------------------------------------------------------
Reference origin for moment evaluation is (1, 0, 0).
Surface(s) where the force coefficients are evaluated: wall.

Surface(s) plotted in the output file: wall.
Input mesh file name: su2meshEx.su2

--------------- Space Numerical Integration ( Zone 0 ) ------------------
Roe (with entropy fix = 1e-05) solver for the flow inviscid terms.
Standard Roe without low-dissipation function.
Second order integration in space, with slope limiter.
Van Albada slope-limiting method implemented by edges.
Scalar upwind solver for the turbulence model.
First order integration in space.
Average of gradients with correction (viscous flow terms).
Average of gradients with correction (viscous turbulence terms).
WARNING: The current SST-1994m model is inconsistent with literature. We recommend using the SST-2003m model.
In SU2 v8 the 2003m model will become default, and the inconsistency will be fixed.
Gradient for upwind reconstruction: Green-Gauss.

----------------- Physical Case Definition ( Zone 0 ) -------------------
Gradient for viscous and source terms: Green-Gauss.
Compressible RANS equations.

Turbulence model: Menter's k-omega SST-1994m with no production modification.
--------------- Time Numerical Integration  ( Zone 0 ) ------------------
Hybrid RANS/LES: No Hybrid RANS/LES
Local time stepping (steady state simulation).
Mach number: 0.21.
Euler implicit method for the flow equations.
Angle of attack (AoA): 0 deg, and angle of sideslip (AoS): 0 deg.
FGMRES is used for solving the linear system.
Reynolds number: 1.28186e+07. Reference length 2.62.
Using a ILU(0) preconditioning.
No restart solution, use the values at infinity (freestream).
Convergence criteria of the linear solver: 0.2.
Non-Dimensional simulation (V=Mach, Rho=1.0, T=1.0 at the farfield).
WARNING: The current SST-1994m model is inconsistent with literature. We recommend using the SST-2003m model.
In SU2 v8 the 2003m model will become default, and the inconsistency will be fixed.
Max number of linear iterations: 4.
The reference area is 2.62 m^2.

CFL adaptation. Factor down: 0.1, factor up: 1.2,
                lower limit: 25, upper limit: 1000,
                acceptable linear residual: 0.001.
The semi-span will be computed using the max y(3D) value.
Parsing config file for zone 0
Courant-Friedrichs-Lewy number:       25
The reference length is 2.62 m.
Euler implicit time integration for the turbulence model.
WARNING: The current SST-1994m model is inconsistent with literature. We recommend using the SST-2003m model.
In SU2 v8 the 2003m model will become default, and the inconsistency will be fixed.
Reference origin for moment evaluation is (1, 0, 0).


Surface(s) where the force coefficients are evaluated: wall.
------------------ Convergence Criteria  ( Zone 0 ) ---------------------
----------------- Physical Case Definition ( Zone 0 ) -------------------

WARNING: The current SST-1994m model is inconsistent with literature. We recommend using the SST-2003m model.
In SU2 v8 the 2003m model will become default, and the inconsistency will be fixed.
Maximum number of solver subiterations: 50000.
Compressible RANS equations.
Surface(s) plotted in the output file: wall.

Begin convergence monitoring at iteration 10.
Turbulence model: Menter's k-omega SST-1994m with no production modification.
Input mesh file name: su2meshEx.su2
Parsing config file for zone 0
Residual minimum value: 1e-11.5.
Hybrid RANS/LES: No Hybrid RANS/LES

Cauchy series min. value: 5e-07.
Mach number: 0.21.
--------------- Space Numerical Integration ( Zone 0 ) ------------------
Number of Cauchy elements: 500.
Angle of attack (AoA): 0 deg, and angle of sideslip (AoS): 0 deg.
Roe (with entropy fix = 1e-05) solver for the flow inviscid terms.
Begin windowed time average at iteration 0.
Reynolds number: 1.28186e+07. Reference length 2.62.
Standard Roe without low-dissipation function.

No restart solution, use the values at infinity (freestream).
Second order integration in space, with slope limiter.
Van Albada slope-limiting method implemented by edges.
-------------------- Output Information ( Zone 0 ) ----------------------
Non-Dimensional simulation (V=Mach, Rho=1.0, T=1.0 at the farfield).
Scalar upwind solver for the turbulence model.
File writing frequency: 
The reference area is 2.62 m^2.
First order integration in space.
+------------------------------------+
|                     File| Frequency|
+------------------------------------+
|                  RESTART|      3000|
|                 PARAVIEW|      3000|
|         SURFACE_PARAVIEW|      3000|
+------------------------------------+
Writing the convergence history file every 1 inner iterations.
The semi-span will be computed using the max y(3D) value.
Average of gradients with correction (viscous flow terms).
Writing the screen convergence history every 25 inner iterations.
The reference length is 2.62 m.
Average of gradients with correction (viscous turbulence terms).
The tabular file format is CSV (.csv).
Reference origin for moment evaluation is (1, 0, 0).
Gradient for upwind reconstruction: Green-Gauss.
Convergence history file name: history.
Surface(s) where the force coefficients are evaluated: wall.
Gradient for viscous and source terms: Green-Gauss.
Forces breakdown file name: forces_breakdown.dat.


Surface file name: surface.
Surface(s) plotted in the output file: wall.
--------------- Time Numerical Integration  ( Zone 0 ) ------------------
Volume file name: vol_solution.
Input mesh file name: su2meshEx.su2
Local time stepping (steady state simulation).
Restart file name: restart.dat.

Euler implicit method for the flow equations.

--------------- Space Numerical Integration ( Zone 0 ) ------------------
FGMRES is used for solving the linear system.
------------- Config File Boundary Information ( Zone 0 ) ---------------
Roe (with entropy fix = 1e-05) solver for the flow inviscid terms.
Using a ILU(0) preconditioning.
Standard Roe without low-dissipation function.
Convergence criteria of the linear solver: 0.2.
Second order integration in space, with slope limiter.
Van Albada slope-limiting method implemented by edges.
Max number of linear iterations: 4.
+-----------------------------------------------------------------------+
|                        Marker Type|                        Marker Name|
+-----------------------------------------------------------------------+
|                          Far-field|                          far-field|
+-----------------------------------------------------------------------+
|                     Heat flux wall|                               wall|
+-----------------------------------------------------------------------+

Scalar upwind solver for the turbulence model.
CFL adaptation. Factor down: 0.1, factor up: 1.2,
                lower limit: 25, upper limit: 1000,
                acceptable linear residual: 0.001.
-------------------- Output Preprocessing ( Zone 0 ) --------------------
First order integration in space.
Courant-Friedrichs-Lewy number:       25
Average of gradients with correction (viscous flow terms).
Euler implicit time integration for the turbulence model.
Average of gradients with correction (viscous turbulence terms).

Gradient for upwind reconstruction: Green-Gauss.
------------------ Convergence Criteria  ( Zone 0 ) ---------------------
Gradient for viscous and source terms: Green-Gauss.

WARNING: SURFACE_PRESSURE_DROP can only be computed for at least 2 surfaces (outlet, inlet, ...)

Maximum number of solver subiterations: 50000.

Begin convergence monitoring at iteration 10.
--------------- Time Numerical Integration  ( Zone 0 ) ------------------
Residual minimum value: 1e-11.5.
Local time stepping (steady state simulation).
Cauchy series min. value: 5e-07.
Euler implicit method for the flow equations.
Number of Cauchy elements: 500.
FGMRES is used for solving the linear system.
Begin windowed time average at iteration 0.
Using a ILU(0) preconditioning.

Convergence criteria of the linear solver: 0.2.
-------------------- Output Information ( Zone 0 ) ----------------------
Max number of linear iterations: 4.
File writing frequency: 
CFL adaptation. Factor down: 0.1, factor up: 1.2,
                lower limit: 25, upper limit: 1000,
                acceptable linear residual: 0.001.
  Info: Ignoring the following screen output fields:
  RMS_NU_TILDE
Courant-Friedrichs-Lewy number:       25
Screen output fields: INNER_ITER, RMS_DENSITY, RMS_MOMENTUM-X, RMS_MOMENTUM-Y, RMS_ENERGY, DRAG, LIFT, MOMENT_Z, LINSOL_RESIDUAL
Euler implicit time integration for the turbulence model.
+------------------------------------+
|                     File| Frequency|
+------------------------------------+
|                  RESTART|      3000|
|                 PARAVIEW|      3000|
|         SURFACE_PARAVIEW|      3000|
+------------------------------------+
Writing the convergence history file every 1 inner iterations.

Writing the screen convergence history every 25 inner iterations.
History output group(s): ITER, RMS_RES, AERO_COEFF
------------------ Convergence Criteria  ( Zone 0 ) ---------------------
The tabular file format is CSV (.csv).
Convergence field(s): LIFT
Maximum number of solver subiterations: 50000.
Convergence history file name: history.
Warning: No (valid) fields chosen for time convergence monitoring. Time convergence monitoring inactive.
Begin convergence monitoring at iteration 10.
Forces breakdown file name: forces_breakdown.dat.
Residual minimum value: 1e-11.5.
Surface file name: surface.
Cauchy series min. value: 5e-07.
Volume file name: vol_solution.
Number of Cauchy elements: 500.
Restart file name: restart.dat.
Begin windowed time average at iteration 0.
WARNING: The current SST-1994m model is inconsistent with literature. We recommend using the SST-2003m model.
In SU2 v8 the 2003m model will become default, and the inconsistency will be fixed.



------------- Config File Boundary Information ( Zone 0 ) ---------------
-------------------- Output Information ( Zone 0 ) ----------------------
----------------- Physical Case Definition ( Zone 0 ) -------------------
File writing frequency: 
Volume output fields: COORDINATES, SOLUTION, PRIMITIVE
Compressible RANS equations.
+------------------------------------+
|                     File| Frequency|
+------------------------------------+
|                  RESTART|      3000|
|                 PARAVIEW|      3000|
|         SURFACE_PARAVIEW|      3000|
+------------------------------------+
Writing the convergence history file every 1 inner iterations.

+-----------------------------------------------------------------------+
|                        Marker Type|                        Marker Name|
+-----------------------------------------------------------------------+
|                          Far-field|                          far-field|
+-----------------------------------------------------------------------+
|                     Heat flux wall|                               wall|
+-----------------------------------------------------------------------+

Turbulence model: Menter's k-omega SST-1994m with no production modification.
Writing the screen convergence history every 25 inner iterations.
------------------- Geometry Preprocessing ( Zone 0 ) -------------------
-------------------- Output Preprocessing ( Zone 0 ) --------------------
Hybrid RANS/LES: No Hybrid RANS/LES
The tabular file format is CSV (.csv).
Mach number: 0.21.
Convergence history file name: history.
Angle of attack (AoA): 0 deg, and angle of sideslip (AoS): 0 deg.
WARNING: The current SST-1994m model is inconsistent with literature. We recommend using the SST-2003m model.
In SU2 v8 the 2003m model will become default, and the inconsistency will be fixed.
Forces breakdown file name: forces_breakdown.dat.
Reynolds number: 1.28186e+07. Reference length 2.62.

Surface file name: surface.

WARNING: SURFACE_PRESSURE_DROP can only be computed for at least 2 surfaces (outlet, inlet, ...)

No restart solution, use the values at infinity (freestream).
----------------- Physical Case Definition ( Zone 0 ) -------------------
Volume file name: vol_solution.
Non-Dimensional simulation (V=Mach, Rho=1.0, T=1.0 at the farfield).
Compressible RANS equations.
Restart file name: restart.dat.
The reference area is 2.62 m^2.
Turbulence model: Menter's k-omega SST-1994m with no production modification.

The semi-span will be computed using the max y(3D) value.
Hybrid RANS/LES: No Hybrid RANS/LES
  Info: Ignoring the following screen output fields:
  RMS_NU_TILDE
------------- Config File Boundary Information ( Zone 0 ) ---------------
The reference length is 2.62 m.
Mach number: 0.21.
Screen output fields: INNER_ITER, RMS_DENSITY, RMS_MOMENTUM-X, RMS_MOMENTUM-Y, RMS_ENERGY, DRAG, LIFT, MOMENT_Z, LINSOL_RESIDUAL
Reference origin for moment evaluation is (1, 0, 0).
Angle of attack (AoA): 0 deg, and angle of sideslip (AoS): 0 deg.
History output group(s): ITER, RMS_RES, AERO_COEFF
+-----------------------------------------------------------------------+
|                        Marker Type|                        Marker Name|
+-----------------------------------------------------------------------+
|                          Far-field|                          far-field|
+-----------------------------------------------------------------------+
|                     Heat flux wall|                               wall|
+-----------------------------------------------------------------------+

Surface(s) where the force coefficients are evaluated: wall.
Reynolds number: 1.28186e+07. Reference length 2.62.
Convergence field(s): LIFT
-------------------- Output Preprocessing ( Zone 0 ) --------------------

No restart solution, use the values at infinity (freestream).
Warning: No (valid) fields chosen for time convergence monitoring. Time convergence monitoring inactive.
Surface(s) plotted in the output file: wall.
Non-Dimensional simulation (V=Mach, Rho=1.0, T=1.0 at the farfield).
Input mesh file name: su2meshEx.su2
The reference area is 2.62 m^2.


WARNING: SURFACE_PRESSURE_DROP can only be computed for at least 2 surfaces (outlet, inlet, ...)

--------------- Space Numerical Integration ( Zone 0 ) ------------------
The semi-span will be computed using the max y(3D) value.
Roe (with entropy fix = 1e-05) solver for the flow inviscid terms.
The reference length is 2.62 m.
Standard Roe without low-dissipation function.
Reference origin for moment evaluation is (1, 0, 0).
Surface(s) where the force coefficients are evaluated: wall.
Second order integration in space, with slope limiter.
Van Albada slope-limiting method implemented by edges.

Volume output fields: COORDINATES, SOLUTION, PRIMITIVE
Scalar upwind solver for the turbulence model.
  Info: Ignoring the following screen output fields:
  RMS_NU_TILDE
Surface(s) plotted in the output file: wall.

First order integration in space.
Screen output fields: INNER_ITER, RMS_DENSITY, RMS_MOMENTUM-X, RMS_MOMENTUM-Y, RMS_ENERGY, DRAG, LIFT, MOMENT_Z, LINSOL_RESIDUAL
Input mesh file name: su2meshEx.su2
------------------- Geometry Preprocessing ( Zone 0 ) -------------------
Average of gradients with correction (viscous flow terms).
History output group(s): ITER, RMS_RES, AERO_COEFF

Average of gradients with correction (viscous turbulence terms).
Convergence field(s): LIFT
--------------- Space Numerical Integration ( Zone 0 ) ------------------
Gradient for upwind reconstruction: Green-Gauss.
Warning: No (valid) fields chosen for time convergence monitoring. Time convergence monitoring inactive.
Roe (with entropy fix = 1e-05) solver for the flow inviscid terms.
Gradient for viscous and source terms: Green-Gauss.
Standard Roe without low-dissipation function.

Second order integration in space, with slope limiter.
Van Albada slope-limiting method implemented by edges.
--------------- Time Numerical Integration  ( Zone 0 ) ------------------
Scalar upwind solver for the turbulence model.
Local time stepping (steady state simulation).
First order integration in space.
Euler implicit method for the flow equations.
Average of gradients with correction (viscous flow terms).
FGMRES is used for solving the linear system.
Average of gradients with correction (viscous turbulence terms).
Using a ILU(0) preconditioning.
Gradient for upwind reconstruction: Green-Gauss.
Convergence criteria of the linear solver: 0.2.
Gradient for viscous and source terms: Green-Gauss.
Max number of linear iterations: 4.

CFL adaptation. Factor down: 0.1, factor up: 1.2,
                lower limit: 25, upper limit: 1000,
                acceptable linear residual: 0.001.
Volume output fields: COORDINATES, SOLUTION, PRIMITIVE
--------------- Time Numerical Integration  ( Zone 0 ) ------------------
Courant-Friedrichs-Lewy number:       25

Local time stepping (steady state simulation).
Euler implicit time integration for the turbulence model.
------------------- Geometry Preprocessing ( Zone 0 ) -------------------
Euler implicit method for the flow equations.

FGMRES is used for solving the linear system.
------------------ Convergence Criteria  ( Zone 0 ) ---------------------
Using a ILU(0) preconditioning.
Maximum number of solver subiterations: 50000.
Convergence criteria of the linear solver: 0.2.
Max number of linear iterations: 4.
Begin convergence monitoring at iteration 10.
Residual minimum value: 1e-11.5.
CFL adaptation. Factor down: 0.1, factor up: 1.2,
                lower limit: 25, upper limit: 1000,
                acceptable linear residual: 0.001.
Cauchy series min. value: 5e-07.
Courant-Friedrichs-Lewy number:       25
Number of Cauchy elements: 500.
Euler implicit time integration for the turbulence model.
Begin windowed time average at iteration 0.


------------------ Convergence Criteria  ( Zone 0 ) ---------------------
-------------------- Output Information ( Zone 0 ) ----------------------
Maximum number of solver subiterations: 50000.
File writing frequency: 
Begin convergence monitoring at iteration 10.
Residual minimum value: 1e-11.5.
+------------------------------------+
|                     File| Frequency|
+------------------------------------+
|                  RESTART|      3000|
|                 PARAVIEW|      3000|
|         SURFACE_PARAVIEW|      3000|
+------------------------------------+
Writing the convergence history file every 1 inner iterations.
Cauchy series min. value: 5e-07.
Writing the screen convergence history every 25 inner iterations.
Number of Cauchy elements: 500.
The tabular file format is CSV (.csv).
Begin windowed time average at iteration 0.
Convergence history file name: history.

Forces breakdown file name: forces_breakdown.dat.
-------------------- Output Information ( Zone 0 ) ----------------------
Surface file name: surface.
File writing frequency: 
Volume file name: vol_solution.
Restart file name: restart.dat.

------------- Config File Boundary Information ( Zone 0 ) ---------------
+------------------------------------+
|                     File| Frequency|
+------------------------------------+
|                  RESTART|      3000|
|                 PARAVIEW|      3000|
|         SURFACE_PARAVIEW|      3000|
+------------------------------------+
Writing the convergence history file every 1 inner iterations.
Writing the screen convergence history every 25 inner iterations.
The tabular file format is CSV (.csv).
Convergence history file name: history.
Forces breakdown file name: forces_breakdown.dat.
Surface file name: surface.
Volume file name: vol_solution.
Restart file name: restart.dat.
+-----------------------------------------------------------------------+
|                        Marker Type|                        Marker Name|
+-----------------------------------------------------------------------+
|                          Far-field|                          far-field|
+-----------------------------------------------------------------------+
|                     Heat flux wall|                               wall|
+-----------------------------------------------------------------------+


-------------------- Output Preprocessing ( Zone 0 ) --------------------
------------- Config File Boundary Information ( Zone 0 ) ---------------

WARNING: SURFACE_PRESSURE_DROP can only be computed for at least 2 surfaces (outlet, inlet, ...)

+-----------------------------------------------------------------------+
|                        Marker Type|                        Marker Name|
+-----------------------------------------------------------------------+
|                          Far-field|                          far-field|
+-----------------------------------------------------------------------+
|                     Heat flux wall|                               wall|
+-----------------------------------------------------------------------+

-------------------- Output Preprocessing ( Zone 0 ) --------------------
  Info: Ignoring the following screen output fields:
  RMS_NU_TILDE
Screen output fields: INNER_ITER, RMS_DENSITY, RMS_MOMENTUM-X, RMS_MOMENTUM-Y, RMS_ENERGY, DRAG, LIFT, MOMENT_Z, LINSOL_RESIDUAL

WARNING: SURFACE_PRESSURE_DROP can only be computed for at least 2 surfaces (outlet, inlet, ...)

History output group(s): ITER, RMS_RES, AERO_COEFF
Convergence field(s): LIFT
Warning: No (valid) fields chosen for time convergence monitoring. Time convergence monitoring inactive.
  Info: Ignoring the following screen output fields:
  RMS_NU_TILDE
Screen output fields: INNER_ITER, RMS_DENSITY, RMS_MOMENTUM-X, RMS_MOMENTUM-Y, RMS_ENERGY, DRAG, LIFT, MOMENT_Z, LINSOL_RESIDUAL
History output group(s): ITER, RMS_RES, AERO_COEFF
Volume output fields: COORDINATES, SOLUTION, PRIMITIVE
Convergence field(s): LIFT

Warning: No (valid) fields chosen for time convergence monitoring. Time convergence monitoring inactive.
------------------- Geometry Preprocessing ( Zone 0 ) -------------------
Volume output fields: COORDINATES, SOLUTION, PRIMITIVE

------------------- Geometry Preprocessing ( Zone 0 ) -------------------
WARNING: The current SST-1994m model is inconsistent with literature. We recommend using the SST-2003m model.
In SU2 v8 the 2003m model will become default, and the inconsistency will be fixed.

-------------------------------------------------------------------------
|    ___ _   _ ___                                                      |
|   / __| | | |_  )   Release 7.5.1 "Blackbird"                         |
|   \__ \ |_| |/ /                                                      |
|   |___/\___//___|   Suite (Computational Fluid Dynamics Code)         |
|                                                                       |
-------------------------------------------------------------------------
| SU2 Project Website: https://su2code.github.io                        |
|                                                                       |
| The SU2 Project is maintained by the SU2 Foundation                   |
| (http://su2foundation.org)                                            |
-------------------------------------------------------------------------
| Copyright 2012-2023, SU2 Contributors                                 |
|                                                                       |
| SU2 is free software; you can redistribute it and/or                  |
| modify it under the terms of the GNU Lesser General Public            |
| License as published by the Free Software Foundation; either          |
| version 2.1 of the License, or (at your option) any later version.    |
|                                                                       |
| SU2 is distributed in the hope that it will be useful,                |
| but WITHOUT ANY WARRANTY; without even the implied warranty of        |
| MERCHANTABILITY or FITNESS FOR A PARTICULAR PURPOSE. See the GNU      |
| Lesser General Public License for more details.                       |
|                                                                       |
| You should have received a copy of the GNU Lesser General Public      |
| License along with SU2. If not, see <http://www.gnu.org/licenses/>.   |
-------------------------------------------------------------------------
WARNING: The current SST-1994m model is inconsistent with literature. We recommend using the SST-2003m model.
In SU2 v8 the 2003m model will become default, and the inconsistency will be fixed.

Parsing config file for zone 0
WARNING: The current SST-1994m model is inconsistent with literature. We recommend using the SST-2003m model.
In SU2 v8 the 2003m model will become default, and the inconsistency will be fixed.

----------------- Physical Case Definition ( Zone 0 ) -------------------
Compressible RANS equations.
Turbulence model: Menter's k-omega SST-1994m with no production modification.
Hybrid RANS/LES: No Hybrid RANS/LES
Mach number: 0.21.
Angle of attack (AoA): 0 deg, and angle of sideslip (AoS): 0 deg.
Reynolds number: 1.28186e+07. Reference length 2.62.
No restart solution, use the values at infinity (freestream).
Non-Dimensional simulation (V=Mach, Rho=1.0, T=1.0 at the farfield).
The reference area is 2.62 m^2.
The semi-span will be computed using the max y(3D) value.
The reference length is 2.62 m.
Reference origin for moment evaluation is (1, 0, 0).
Surface(s) where the force coefficients are evaluated: wall.

Surface(s) plotted in the output file: wall.
Input mesh file name: su2meshEx.su2

--------------- Space Numerical Integration ( Zone 0 ) ------------------
Roe (with entropy fix = 1e-05) solver for the flow inviscid terms.
Standard Roe without low-dissipation function.
Second order integration in space, with slope limiter.
Van Albada slope-limiting method implemented by edges.
Scalar upwind solver for the turbulence model.
First order integration in space.
Average of gradients with correction (viscous flow terms).
Average of gradients with correction (viscous turbulence terms).
Gradient for upwind reconstruction: Green-Gauss.
Gradient for viscous and source terms: Green-Gauss.

--------------- Time Numerical Integration  ( Zone 0 ) ------------------
Local time stepping (steady state simulation).
Euler implicit method for the flow equations.
FGMRES is used for solving the linear system.
Using a ILU(0) preconditioning.
Convergence criteria of the linear solver: 0.2.
Max number of linear iterations: 4.
CFL adaptation. Factor down: 0.1, factor up: 1.2,
                lower limit: 25, upper limit: 1000,
                acceptable linear residual: 0.001.
Courant-Friedrichs-Lewy number:       25
Euler implicit time integration for the turbulence model.

------------------ Convergence Criteria  ( Zone 0 ) ---------------------
Maximum number of solver subiterations: 50000.
Begin convergence monitoring at iteration 10.
Residual minimum value: 1e-11.5.
Cauchy series min. value: 5e-07.
Number of Cauchy elements: 500.
Begin windowed time average at iteration 0.

-------------------- Output Information ( Zone 0 ) ----------------------
File writing frequency: 
+------------------------------------+
|                     File| Frequency|
+------------------------------------+
|                  RESTART|      3000|
|                 PARAVIEW|      3000|
|         SURFACE_PARAVIEW|      3000|
+------------------------------------+
Writing the convergence history file every 1 inner iterations.
Writing the screen convergence history every 25 inner iterations.
The tabular file format is CSV (.csv).
Convergence history file name: history.
Forces breakdown file name: forces_breakdown.dat.
Surface file name: surface.
Volume file name: vol_solution.
Restart file name: restart.dat.

------------- Config File Boundary Information ( Zone 0 ) ---------------
+-----------------------------------------------------------------------+
|                        Marker Type|                        Marker Name|
+-----------------------------------------------------------------------+
|                          Far-field|                          far-field|
+-----------------------------------------------------------------------+
|                     Heat flux wall|                               wall|
+-----------------------------------------------------------------------+

-------------------- Output Preprocessing ( Zone 0 ) --------------------

WARNING: SURFACE_PRESSURE_DROP can only be computed for at least 2 surfaces (outlet, inlet, ...)

  Info: Ignoring the following screen output fields:
  RMS_NU_TILDE
Screen output fields: INNER_ITER, RMS_DENSITY, RMS_MOMENTUM-X, RMS_MOMENTUM-Y, RMS_ENERGY, DRAG, LIFT, MOMENT_Z, LINSOL_RESIDUAL
History output group(s): ITER, RMS_RES, AERO_COEFF
Convergence field(s): LIFT
Warning: No (valid) fields chosen for time convergence monitoring. Time convergence monitoring inactive.
Volume output fields: COORDINATES, SOLUTION, PRIMITIVE

------------------- Geometry Preprocessing ( Zone 0 ) -------------------
WARNING: The current SST-1994m model is inconsistent with literature. We recommend using the SST-2003m model.
In SU2 v8 the 2003m model will become default, and the inconsistency will be fixed.

-------------------------------------------------------------------------
|    ___ _   _ ___                                                      |
|   / __| | | |_  )   Release 7.5.1 "Blackbird"                         |
|   \__ \ |_| |/ /                                                      |
|   |___/\___//___|   Suite (Computational Fluid Dynamics Code)         |
|                                                                       |
-------------------------------------------------------------------------
| SU2 Project Website: https://su2code.github.io                        |
|                                                                       |
| The SU2 Project is maintained by the SU2 Foundation                   |
| (http://su2foundation.org)                                            |
-------------------------------------------------------------------------
| Copyright 2012-2023, SU2 Contributors                                 |
|                                                                       |
| SU2 is free software; you can redistribute it and/or                  |
| modify it under the terms of the GNU Lesser General Public            |
| License as published by the Free Software Foundation; either          |
| version 2.1 of the License, or (at your option) any later version.    |
|                                                                       |
| SU2 is distributed in the hope that it will be useful,                |
| but WITHOUT ANY WARRANTY; without even the implied warranty of        |
| MERCHANTABILITY or FITNESS FOR A PARTICULAR PURPOSE. See the GNU      |
| Lesser General Public License for more details.                       |
|                                                                       |
| You should have received a copy of the GNU Lesser General Public      |
| License along with SU2. If not, see <http://www.gnu.org/licenses/>.   |
-------------------------------------------------------------------------
WARNING: The current SST-1994m model is inconsistent with literature. We recommend using the SST-2003m model.
In SU2 v8 the 2003m model will become default, and the inconsistency will be fixed.

Parsing config file for zone 0
WARNING: The current SST-1994m model is inconsistent with literature. We recommend using the SST-2003m model.
In SU2 v8 the 2003m model will become default, and the inconsistency will be fixed.

----------------- Physical Case Definition ( Zone 0 ) -------------------
Compressible RANS equations.
Turbulence model: Menter's k-omega SST-1994m with no production modification.
Hybrid RANS/LES: No Hybrid RANS/LES
Mach number: 0.21.
Angle of attack (AoA): 0 deg, and angle of sideslip (AoS): 0 deg.
Reynolds number: 1.28186e+07. Reference length 2.62.
No restart solution, use the values at infinity (freestream).
Non-Dimensional simulation (V=Mach, Rho=1.0, T=1.0 at the farfield).
The reference area is 2.62 m^2.
The semi-span will be computed using the max y(3D) value.
The reference length is 2.62 m.
Reference origin for moment evaluation is (1, 0, 0).
Surface(s) where the force coefficients are evaluated: wall.

Surface(s) plotted in the output file: wall.
Input mesh file name: su2meshEx.su2

--------------- Space Numerical Integration ( Zone 0 ) ------------------
Roe (with entropy fix = 1e-05) solver for the flow inviscid terms.
Standard Roe without low-dissipation function.
Second order integration in space, with slope limiter.
Van Albada slope-limiting method implemented by edges.
Scalar upwind solver for the turbulence model.
First order integration in space.
Average of gradients with correction (viscous flow terms).
Average of gradients with correction (viscous turbulence terms).
Gradient for upwind reconstruction: Green-Gauss.
Gradient for viscous and source terms: Green-Gauss.

--------------- Time Numerical Integration  ( Zone 0 ) ------------------
Local time stepping (steady state simulation).
Euler implicit method for the flow equations.
FGMRES is used for solving the linear system.
Using a ILU(0) preconditioning.
Convergence criteria of the linear solver: 0.2.
Max number of linear iterations: 4.
CFL adaptation. Factor down: 0.1, factor up: 1.2,
                lower limit: 25, upper limit: 1000,
                acceptable linear residual: 0.001.
Courant-Friedrichs-Lewy number:       25
Euler implicit time integration for the turbulence model.

------------------ Convergence Criteria  ( Zone 0 ) ---------------------
Maximum number of solver subiterations: 50000.
Begin convergence monitoring at iteration 10.
Residual minimum value: 1e-11.5.
Cauchy series min. value: 5e-07.
Number of Cauchy elements: 500.
Begin windowed time average at iteration 0.

-------------------- Output Information ( Zone 0 ) ----------------------
File writing frequency: 
+------------------------------------+
|                     File| Frequency|
+------------------------------------+
|                  RESTART|      3000|
|                 PARAVIEW|      3000|
|         SURFACE_PARAVIEW|      3000|
+------------------------------------+
Writing the convergence history file every 1 inner iterations.
Writing the screen convergence history every 25 inner iterations.
The tabular file format is CSV (.csv).
Convergence history file name: history.
Forces breakdown file name: forces_breakdown.dat.
Surface file name: surface.
Volume file name: vol_solution.
Restart file name: restart.dat.

------------- Config File Boundary Information ( Zone 0 ) ---------------
+-----------------------------------------------------------------------+
|                        Marker Type|                        Marker Name|
+-----------------------------------------------------------------------+
|                          Far-field|                          far-field|
+-----------------------------------------------------------------------+
|                     Heat flux wall|                               wall|
+-----------------------------------------------------------------------+

-------------------- Output Preprocessing ( Zone 0 ) --------------------

WARNING: SURFACE_PRESSURE_DROP can only be computed for at least 2 surfaces (outlet, inlet, ...)

  Info: Ignoring the following screen output fields:
  RMS_NU_TILDE
Screen output fields: INNER_ITER, RMS_DENSITY, RMS_MOMENTUM-X, RMS_MOMENTUM-Y, RMS_ENERGY, DRAG, LIFT, MOMENT_Z, LINSOL_RESIDUAL
History output group(s): ITER, RMS_RES, AERO_COEFF
Convergence field(s): LIFT
Warning: No (valid) fields chosen for time convergence monitoring. Time convergence monitoring inactive.
Volume output fields: COORDINATES, SOLUTION, PRIMITIVE

------------------- Geometry Preprocessing ( Zone 0 ) -------------------
Two dimensional problem.
69660 grid points.
69255 volume elements.
Two dimensional problem.
69660 grid points.
69255 volume elements.
Two dimensional problem.
69660 grid points.
69255 volume elements.
2 surface markers.
405 boundary elements in index 0 (Marker = far-field).
405 boundary elements in index 1 (Marker = wall).
Two dimensional problem.
69660 grid points.
69255 volume elements.
Two dimensional problem.
69660 grid points.
69255 volume elements.
2 surface markers.
405 boundary elements in index 0 (Marker = far-field).
405 boundary elements in index 1 (Marker = wall).
2 surface markers.
405 boundary elements in index 0 (Marker = far-field).
405 boundary elements in index 1 (Marker = wall).
Two dimensional problem.
69660 grid points.
69255 volume elements.
2 surface markers.
405 boundary elements in index 0 (Marker = far-field).
405 boundary elements in index 1 (Marker = wall).
2 surface markers.
405 boundary elements in index 0 (Marker = far-field).
405 boundary elements in index 1 (Marker = wall).
2 surface markers.
405 boundary elements in index 0 (Marker = far-field).
405 boundary elements in index 1 (Marker = wall).
Two dimensional problem.
69660 grid points.
69255 volume elements.
2 surface markers.
405 boundary elements in index 0 (Marker = far-field).
405 boundary elements in index 1 (Marker = wall).
69255 quadrilaterals.
69255 quadrilaterals.
69255 quadrilaterals.
Setting point connectivity.
69255 quadrilaterals.
Setting point connectivity.
69255 quadrilaterals.
Setting point connectivity.
Setting point connectivity.
69255 quadrilaterals.
69255 quadrilaterals.
Setting point connectivity.
Renumbering points (Reverse Cuthill McKee Ordering).
Setting point connectivity.
Renumbering points (Reverse Cuthill McKee Ordering).
Recomputing point connectivity.
Setting point connectivity.
Recomputing point connectivity.
Renumbering points (Reverse Cuthill McKee Ordering).
Renumbering points (Reverse Cuthill McKee Ordering).
Recomputing point connectivity.
Renumbering points (Reverse Cuthill McKee Ordering).
Recomputing point connectivity.
Recomputing point connectivity.
Renumbering points (Reverse Cuthill McKee Ordering).
Setting element connectivity.
Renumbering points (Reverse Cuthill McKee Ordering).
Recomputing point connectivity.
Recomputing point connectivity.
Setting element connectivity.
Setting element connectivity.
Setting element connectivity.
Checking the numerical grid orientation.
All volume elements are correctly orientend.
All surface elements are correctly orientend.
Identifying edges and vertices.
Setting the control volume structure.
Setting element connectivity.
Checking the numerical grid orientation.
All volume elements are correctly orientend.
All surface elements are correctly orientend.
Identifying edges and vertices.
Area of the computational grid: 754011.
Searching for the closest normal neighbors to the surfaces.
Storing a mapping from global to local point index.
Setting the control volume structure.
Compute the surface curvature.
Max K: 1084.38. Mean K: 3.58927. Standard deviation K: 49.7609.
Checking for periodicity.
Computing mesh quality statistics for the dual control volumes.
Setting element connectivity.
Checking the numerical grid orientation.
Area of the computational grid: 754011.
Searching for the closest normal neighbors to the surfaces.
Storing a mapping from global to local point index.
All volume elements are correctly orientend.
Setting element connectivity.
All surface elements are correctly orientend.
Identifying edges and vertices.
Checking the numerical grid orientation.
All volume elements are correctly orientend.
Setting the control volume structure.
All surface elements are correctly orientend.
Identifying edges and vertices.
Compute the surface curvature.
Setting the control volume structure.
Max K: 1084.38. Mean K: 3.58927. Standard deviation K: 49.7609.
Checking for periodicity.
Computing mesh quality statistics for the dual control volumes.
Checking the numerical grid orientation.
All volume elements are correctly orientend.
All surface elements are correctly orientend.
Identifying edges and vertices.
Setting the control volume structure.
+--------------------------------------------------------------+
|           Mesh Quality Metric|        Minimum|        Maximum|
+--------------------------------------------------------------+
|    Orthogonality Angle (deg.)|        82.7726|             90|
|     CV Face Area Aspect Ratio|         1.0047|        13208.3|
|           CV Sub-Volume Ratio|              1|        2.23556|
+--------------------------------------------------------------+
Finding max control volume width.
Area of the computational grid: 754011.
Wetted area = 5.32649 m.
Area projection in the x-plane = 0.29702 m, y-plane = 2.61984 m.
Max. coordinate in the x-direction = 2.62 m, y-direction = 0.165086 m.
Min. coordinate in the x-direction = 0 m, y-direction = -0.119236 m.
Computing wall distances.
Area of the computational grid: 754011.
Searching for the closest normal neighbors to the surfaces.
Storing a mapping from global to local point index.
Searching for the closest normal neighbors to the surfaces.
Storing a mapping from global to local point index.
Compute the surface curvature.
Max K: 1084.38. Mean K: 3.58927. Standard deviation K: 49.7609.
Compute the surface curvature.
Max K: 1084.38. Mean K: 3.58927. Standard deviation K: 49.7609.
Checking for periodicity.
Computing mesh quality statistics for the dual control volumes.
Checking for periodicity.
Computing mesh quality statistics for the dual control volumes.
Area of the computational grid: 754011.
Searching for the closest normal neighbors to the surfaces.
Storing a mapping from global to local point index.
+--------------------------------------------------------------+
|           Mesh Quality Metric|        Minimum|        Maximum|
+--------------------------------------------------------------+
|    Orthogonality Angle (deg.)|        82.7726|             90|
|     CV Face Area Aspect Ratio|         1.0047|        13208.3|
|           CV Sub-Volume Ratio|              1|        2.23556|
+--------------------------------------------------------------+
Finding max control volume width.
Wetted area = 5.32649 m.
Area projection in the x-plane = 0.29702 m, y-plane = 2.61984 m.
Max. coordinate in the x-direction = 2.62 m, y-direction = 0.165086 m.
Min. coordinate in the x-direction = 0 m, y-direction = -0.119236 m.
Computing wall distances.
Checking the numerical grid orientation.
Compute the surface curvature.
Max K: 1084.38. Mean K: 3.58927. Standard deviation K: 49.7609.
Checking for periodicity.
Computing mesh quality statistics for the dual control volumes.
All volume elements are correctly orientend.
All surface elements are correctly orientend.
Identifying edges and vertices.
Checking the numerical grid orientation.
All volume elements are correctly orientend.
All surface elements are correctly orientend.
Identifying edges and vertices.
Setting the control volume structure.
Setting the control volume structure.
Area of the computational grid: 754011.
+--------------------------------------------------------------+
|           Mesh Quality Metric|        Minimum|        Maximum|
+--------------------------------------------------------------+
|    Orthogonality Angle (deg.)|        82.7726|             90|
|     CV Face Area Aspect Ratio|         1.0047|        13208.3|
|           CV Sub-Volume Ratio|              1|        2.23556|
+--------------------------------------------------------------+
Finding max control volume width.
Searching for the closest normal neighbors to the surfaces.
Storing a mapping from global to local point index.
+--------------------------------------------------------------+
|           Mesh Quality Metric|        Minimum|        Maximum|
+--------------------------------------------------------------+
|    Orthogonality Angle (deg.)|        82.7726|             90|
|     CV Face Area Aspect Ratio|         1.0047|        13208.3|
|           CV Sub-Volume Ratio|              1|        2.23556|
+--------------------------------------------------------------+
Finding max control volume width.
Wetted area = 5.32649 m.
Area projection in the x-plane = 0.29702 m, y-plane = 2.61984 m.
Max. coordinate in the x-direction = 2.62 m, y-direction = 0.165086 m.
Min. coordinate in the x-direction = 0 m, y-direction = -0.119236 m.
Computing wall distances.
Wetted area = 5.32649 m.
Area projection in the x-plane = 0.29702 m, y-plane = 2.61984 m.
Max. coordinate in the x-direction = 2.62 m, y-direction = 0.165086 m.
Min. coordinate in the x-direction = 0 m, y-direction = -0.119236 m.
Computing wall distances.
Area of the computational grid: 754011.
Searching for the closest normal neighbors to the surfaces.
Storing a mapping from global to local point index.
+--------------------------------------------------------------+
|           Mesh Quality Metric|        Minimum|        Maximum|
+--------------------------------------------------------------+
|    Orthogonality Angle (deg.)|        82.7726|             90|
|     CV Face Area Aspect Ratio|         1.0047|        13208.3|
|           CV Sub-Volume Ratio|              1|        2.23556|
+--------------------------------------------------------------+
Finding max control volume width.
Wetted area = 5.32649 m.
Area projection in the x-plane = 0.29702 m, y-plane = 2.61984 m.
Max. coordinate in the x-direction = 2.62 m, y-direction = 0.165086 m.
Min. coordinate in the x-direction = 0 m, y-direction = -0.119236 m.
Computing wall distances.

-------------------- Solver Preprocessing ( Zone 0 ) --------------------
Viscous flow: Computing pressure using the ideal gas law
based on the free-stream temperature and a density computed
from the Reynolds number.
Force coefficients computed using free-stream values.

-- Models:
+------------------------------------------------------------------------------+
|          Viscosity Model|        Conductivity Model|              Fluid Model|
+------------------------------------------------------------------------------+
|               SUTHERLAND|          CONSTANT_PRANDTL|             STANDARD_AIR|
+------------------------------------------------------------------------------+
-- Fluid properties:
+------------------------------------------------------------------------------+
|                  Name|    Dim. value|    Ref. value|      Unit|Non-dim. value|
+------------------------------------------------------------------------------+
|        Ref. Viscosity|     1.716e-05|       416.883|   N.s/m^2|   4.11626e-08|
|      Sutherland Temp.|        273.15|        288.16|         K|      0.947911|
|     Sutherland Const.|         110.4|        288.16|         K|       0.38312|
+------------------------------------------------------------------------------+
|        Prandtl (Lam.)|             -|             -|         -|          0.72|
|       Prandtl (Turb.)|             -|             -|         -|           0.9|
+------------------------------------------------------------------------------+
|          Gas Constant|       287.058|       401.881|  N.m/kg.K|      0.714286|
|      Spec. Heat Ratio|             -|             -|         -|           1.4|
+------------------------------------------------------------------------------+
-- Initial and free-stream conditions:
+------------------------------------------------------------------------------+
|                  Name|    Dim. value|    Ref. value|      Unit|Non-dim. value|
+------------------------------------------------------------------------------+
|       Static Pressure|        101333|        141867|        Pa|      0.714286|
|               Density|       1.22504|       1.22504|    kg/m^3|             1|
|           Temperature|        288.16|        288.16|         K|             1|
|          Total Energy|        209369|        115806|   m^2/s^2|       1.80793|
|            Velocity-X|       71.4636|       340.303|       m/s|          0.21|
|            Velocity-Y|             0|       340.303|       m/s|             0|
|    Velocity Magnitude|       71.4636|       340.303|       m/s|          0.21|
+------------------------------------------------------------------------------+
|             Viscosity|   1.78935e-05|       416.883|   N.s/m^2|    4.2922e-08|
|          Conductivity|             -|        167537|   W/m^2.K|             -|
|     Turb. Kin. Energy|       19.1514|        115806|   m^2/s^2|   0.000165375|
|     Spec. Dissipation|        131116|       340.303|       1/s|       385.292|
+------------------------------------------------------------------------------+
|           Mach Number|             -|             -|         -|          0.21|
|       Reynolds Number|             -|             -|         -|   1.28186e+07|
+------------------------------------------------------------------------------+
Initialize Jacobian structure (Navier-Stokes). MG level: 0.
Compute the surface curvature.
Max K: 1084.38. Mean K: 3.58927. Standard deviation K: 49.7609.
Checking for periodicity.
Computing mesh quality statistics for the dual control volumes.
Compute the surface curvature.
Max K: 1084.38. Mean K: 3.58927. Standard deviation K: 49.7609.
Checking for periodicity.
Computing mesh quality statistics for the dual control volumes.

-------------------- Solver Preprocessing ( Zone 0 ) --------------------
Viscous flow: Computing pressure using the ideal gas law
based on the free-stream temperature and a density computed
from the Reynolds number.
Force coefficients computed using free-stream values.

-- Models:
+------------------------------------------------------------------------------+
|          Viscosity Model|        Conductivity Model|              Fluid Model|
+------------------------------------------------------------------------------+
|               SUTHERLAND|          CONSTANT_PRANDTL|             STANDARD_AIR|
+------------------------------------------------------------------------------+
-- Fluid properties:
+------------------------------------------------------------------------------+
|                  Name|    Dim. value|    Ref. value|      Unit|Non-dim. value|
+------------------------------------------------------------------------------+
|        Ref. Viscosity|     1.716e-05|       416.883|   N.s/m^2|   4.11626e-08|
|      Sutherland Temp.|        273.15|        288.16|         K|      0.947911|
|     Sutherland Const.|         110.4|        288.16|         K|       0.38312|
+------------------------------------------------------------------------------+
|        Prandtl (Lam.)|             -|             -|         -|          0.72|
|       Prandtl (Turb.)|             -|             -|         -|           0.9|
+------------------------------------------------------------------------------+
|          Gas Constant|       287.058|       401.881|  N.m/kg.K|      0.714286|
|      Spec. Heat Ratio|             -|             -|         -|           1.4|
+------------------------------------------------------------------------------+
-- Initial and free-stream conditions:
+------------------------------------------------------------------------------+
|                  Name|    Dim. value|    Ref. value|      Unit|Non-dim. value|
+------------------------------------------------------------------------------+
|       Static Pressure|        101333|        141867|        Pa|      0.714286|
|               Density|       1.22504|       1.22504|    kg/m^3|             1|
|           Temperature|        288.16|        288.16|         K|             1|
|          Total Energy|        209369|        115806|   m^2/s^2|       1.80793|
|            Velocity-X|       71.4636|       340.303|       m/s|          0.21|
|            Velocity-Y|             0|       340.303|       m/s|             0|
|    Velocity Magnitude|       71.4636|       340.303|       m/s|          0.21|
+------------------------------------------------------------------------------+
|             Viscosity|   1.78935e-05|       416.883|   N.s/m^2|    4.2922e-08|
|          Conductivity|             -|        167537|   W/m^2.K|             -|
|     Turb. Kin. Energy|       19.1514|        115806|   m^2/s^2|   0.000165375|
|     Spec. Dissipation|        131116|       340.303|       1/s|       385.292|
+------------------------------------------------------------------------------+
|           Mach Number|             -|             -|         -|          0.21|
|       Reynolds Number|             -|             -|         -|   1.28186e+07|
+------------------------------------------------------------------------------+
Initialize Jacobian structure (Navier-Stokes). MG level: 0.
+--------------------------------------------------------------+
|           Mesh Quality Metric|        Minimum|        Maximum|
+--------------------------------------------------------------+
|    Orthogonality Angle (deg.)|        82.7726|             90|
|     CV Face Area Aspect Ratio|         1.0047|        13208.3|
|           CV Sub-Volume Ratio|              1|        2.23556|
+--------------------------------------------------------------+
Finding max control volume width.
Wetted area = 5.32649 m.
Area projection in the x-plane = 0.29702 m, y-plane = 2.61984 m.
Max. coordinate in the x-direction = 2.62 m, y-direction = 0.165086 m.
Min. coordinate in the x-direction = 0 m, y-direction = -0.119236 m.
Computing wall distances.

-------------------- Solver Preprocessing ( Zone 0 ) --------------------
Viscous flow: Computing pressure using the ideal gas law
based on the free-stream temperature and a density computed
from the Reynolds number.
Force coefficients computed using free-stream values.

+--------------------------------------------------------------+
|           Mesh Quality Metric|        Minimum|        Maximum|
+--------------------------------------------------------------+
|    Orthogonality Angle (deg.)|        82.7726|             90|
|     CV Face Area Aspect Ratio|         1.0047|        13208.3|
|           CV Sub-Volume Ratio|              1|        2.23556|
+--------------------------------------------------------------+
Finding max control volume width.
-- Models:
+------------------------------------------------------------------------------+
|          Viscosity Model|        Conductivity Model|              Fluid Model|
+------------------------------------------------------------------------------+
|               SUTHERLAND|          CONSTANT_PRANDTL|             STANDARD_AIR|
+------------------------------------------------------------------------------+
-- Fluid properties:
+------------------------------------------------------------------------------+
|                  Name|    Dim. value|    Ref. value|      Unit|Non-dim. value|
+------------------------------------------------------------------------------+
|        Ref. Viscosity|     1.716e-05|       416.883|   N.s/m^2|   4.11626e-08|
|      Sutherland Temp.|        273.15|        288.16|         K|      0.947911|
|     Sutherland Const.|         110.4|        288.16|         K|       0.38312|
+------------------------------------------------------------------------------+
|        Prandtl (Lam.)|             -|             -|         -|          0.72|
|       Prandtl (Turb.)|             -|             -|         -|           0.9|
+------------------------------------------------------------------------------+
|          Gas Constant|       287.058|       401.881|  N.m/kg.K|      0.714286|
|      Spec. Heat Ratio|             -|             -|         -|           1.4|
+------------------------------------------------------------------------------+
-- Initial and free-stream conditions:
+------------------------------------------------------------------------------+
|                  Name|    Dim. value|    Ref. value|      Unit|Non-dim. value|
+------------------------------------------------------------------------------+
|       Static Pressure|        101333|        141867|        Pa|      0.714286|
|               Density|       1.22504|       1.22504|    kg/m^3|             1|
|           Temperature|        288.16|        288.16|         K|             1|
|          Total Energy|        209369|        115806|   m^2/s^2|       1.80793|
|            Velocity-X|       71.4636|       340.303|       m/s|          0.21|
|            Velocity-Y|             0|       340.303|       m/s|             0|
|    Velocity Magnitude|       71.4636|       340.303|       m/s|          0.21|
+------------------------------------------------------------------------------+
|             Viscosity|   1.78935e-05|       416.883|   N.s/m^2|    4.2922e-08|
|          Conductivity|             -|        167537|   W/m^2.K|             -|
|     Turb. Kin. Energy|       19.1514|        115806|   m^2/s^2|   0.000165375|
|     Spec. Dissipation|        131116|       340.303|       1/s|       385.292|
+------------------------------------------------------------------------------+
|           Mach Number|             -|             -|         -|          0.21|
|       Reynolds Number|             -|             -|         -|   1.28186e+07|
+------------------------------------------------------------------------------+
Initialize Jacobian structure (Navier-Stokes). MG level: 0.
Wetted area = 5.32649 m.
Area projection in the x-plane = 0.29702 m, y-plane = 2.61984 m.
Max. coordinate in the x-direction = 2.62 m, y-direction = 0.165086 m.
Min. coordinate in the x-direction = 0 m, y-direction = -0.119236 m.
Computing wall distances.

-------------------- Solver Preprocessing ( Zone 0 ) --------------------
Viscous flow: Computing pressure using the ideal gas law
based on the free-stream temperature and a density computed
from the Reynolds number.
Force coefficients computed using free-stream values.

-- Models:
+------------------------------------------------------------------------------+
|          Viscosity Model|        Conductivity Model|              Fluid Model|
+------------------------------------------------------------------------------+
|               SUTHERLAND|          CONSTANT_PRANDTL|             STANDARD_AIR|
+------------------------------------------------------------------------------+
-- Fluid properties:
+------------------------------------------------------------------------------+
|                  Name|    Dim. value|    Ref. value|      Unit|Non-dim. value|
+------------------------------------------------------------------------------+
|        Ref. Viscosity|     1.716e-05|       416.883|   N.s/m^2|   4.11626e-08|
|      Sutherland Temp.|        273.15|        288.16|         K|      0.947911|
|     Sutherland Const.|         110.4|        288.16|         K|       0.38312|
+------------------------------------------------------------------------------+
|        Prandtl (Lam.)|             -|             -|         -|          0.72|
|       Prandtl (Turb.)|             -|             -|         -|           0.9|
+------------------------------------------------------------------------------+
|          Gas Constant|       287.058|       401.881|  N.m/kg.K|      0.714286|
|      Spec. Heat Ratio|             -|             -|         -|           1.4|
+------------------------------------------------------------------------------+
-- Initial and free-stream conditions:
+------------------------------------------------------------------------------+
|                  Name|    Dim. value|    Ref. value|      Unit|Non-dim. value|
+------------------------------------------------------------------------------+
|       Static Pressure|        101333|        141867|        Pa|      0.714286|
|               Density|       1.22504|       1.22504|    kg/m^3|             1|
|           Temperature|        288.16|        288.16|         K|             1|
|          Total Energy|        209369|        115806|   m^2/s^2|       1.80793|
|            Velocity-X|       71.4636|       340.303|       m/s|          0.21|
|            Velocity-Y|             0|       340.303|       m/s|             0|
|    Velocity Magnitude|       71.4636|       340.303|       m/s|          0.21|
+------------------------------------------------------------------------------+
|             Viscosity|   1.78935e-05|       416.883|   N.s/m^2|    4.2922e-08|
|          Conductivity|             -|        167537|   W/m^2.K|             -|
|     Turb. Kin. Energy|       19.1514|        115806|   m^2/s^2|   0.000165375|
|     Spec. Dissipation|        131116|       340.303|       1/s|       385.292|
+------------------------------------------------------------------------------+
|           Mach Number|             -|             -|         -|          0.21|
|       Reynolds Number|             -|             -|         -|   1.28186e+07|
+------------------------------------------------------------------------------+
Initialize Jacobian structure (Navier-Stokes). MG level: 0.

-------------------- Solver Preprocessing ( Zone 0 ) --------------------
Viscous flow: Computing pressure using the ideal gas law
based on the free-stream temperature and a density computed
from the Reynolds number.
Force coefficients computed using free-stream values.

-- Models:
+------------------------------------------------------------------------------+
|          Viscosity Model|        Conductivity Model|              Fluid Model|
+------------------------------------------------------------------------------+
|               SUTHERLAND|          CONSTANT_PRANDTL|             STANDARD_AIR|
+------------------------------------------------------------------------------+
-- Fluid properties:
+------------------------------------------------------------------------------+
|                  Name|    Dim. value|    Ref. value|      Unit|Non-dim. value|
+------------------------------------------------------------------------------+
|        Ref. Viscosity|     1.716e-05|       416.883|   N.s/m^2|   4.11626e-08|
|      Sutherland Temp.|        273.15|        288.16|         K|      0.947911|
|     Sutherland Const.|         110.4|        288.16|         K|       0.38312|
+------------------------------------------------------------------------------+
|        Prandtl (Lam.)|             -|             -|         -|          0.72|
|       Prandtl (Turb.)|             -|             -|         -|           0.9|
+------------------------------------------------------------------------------+
|          Gas Constant|       287.058|       401.881|  N.m/kg.K|      0.714286|
|      Spec. Heat Ratio|             -|             -|         -|           1.4|
+------------------------------------------------------------------------------+
-- Initial and free-stream conditions:
+------------------------------------------------------------------------------+
|                  Name|    Dim. value|    Ref. value|      Unit|Non-dim. value|
+------------------------------------------------------------------------------+
|       Static Pressure|        101333|        141867|        Pa|      0.714286|
|               Density|       1.22504|       1.22504|    kg/m^3|             1|
|           Temperature|        288.16|        288.16|         K|             1|
|          Total Energy|        209369|        115806|   m^2/s^2|       1.80793|
|            Velocity-X|       71.4636|       340.303|       m/s|          0.21|
|            Velocity-Y|             0|       340.303|       m/s|             0|
|    Velocity Magnitude|       71.4636|       340.303|       m/s|          0.21|
+------------------------------------------------------------------------------+
|             Viscosity|   1.78935e-05|       416.883|   N.s/m^2|    4.2922e-08|
|          Conductivity|             -|        167537|   W/m^2.K|             -|
|     Turb. Kin. Energy|       19.1514|        115806|   m^2/s^2|   0.000165375|
|     Spec. Dissipation|        131116|       340.303|       1/s|       385.292|
+------------------------------------------------------------------------------+
|           Mach Number|             -|             -|         -|          0.21|
|       Reynolds Number|             -|             -|         -|   1.28186e+07|
+------------------------------------------------------------------------------+
Initialize Jacobian structure (Navier-Stokes). MG level: 0.

-------------------- Solver Preprocessing ( Zone 0 ) --------------------
Viscous flow: Computing pressure using the ideal gas law
based on the free-stream temperature and a density computed
from the Reynolds number.
Force coefficients computed using free-stream values.

-- Models:
+------------------------------------------------------------------------------+
|          Viscosity Model|        Conductivity Model|              Fluid Model|
+------------------------------------------------------------------------------+
|               SUTHERLAND|          CONSTANT_PRANDTL|             STANDARD_AIR|
+------------------------------------------------------------------------------+
-- Fluid properties:
+------------------------------------------------------------------------------+
|                  Name|    Dim. value|    Ref. value|      Unit|Non-dim. value|
+------------------------------------------------------------------------------+
|        Ref. Viscosity|     1.716e-05|       416.883|   N.s/m^2|   4.11626e-08|
|      Sutherland Temp.|        273.15|        288.16|         K|      0.947911|
|     Sutherland Const.|         110.4|        288.16|         K|       0.38312|
+------------------------------------------------------------------------------+
|        Prandtl (Lam.)|             -|             -|         -|          0.72|
|       Prandtl (Turb.)|             -|             -|         -|           0.9|
+------------------------------------------------------------------------------+
|          Gas Constant|       287.058|       401.881|  N.m/kg.K|      0.714286|
|      Spec. Heat Ratio|             -|             -|         -|           1.4|
[...]
|       10725|  -10.439172|  -10.216174|  -10.572486|  -10.773973|    0.007735|    0.313452|    0.042751|   -0.692242|
|       10750|  -10.439000|  -10.223159|  -10.586290|  -10.844822|    0.007735|    0.313449|    0.042751|   -0.705083|
|       10775|  -10.442733|  -10.230080|  -10.593312|  -10.858801|    0.007735|    0.313445|    0.042751|   -0.704732|
|       10800|  -10.445214|  -10.237616|  -10.600099|  -10.855896|    0.007735|    0.313442|    0.042750|   -0.706580|

----------------------------- Solver Exit -------------------------------
All convergence criteria satisfied.
+-----------------------------------------------------------------------+
|      Convergence Field     |     Value    |   Criterion  |  Converged |
+-----------------------------------------------------------------------+
|                  Cauchy[CL]|   4.99975e-07|       < 5e-07|         Yes|
+-----------------------------------------------------------------------+
-------------------------------------------------------------------------
+-----------------------------------------------------------------------+
|        File Writing Summary       |              Filename             |
+-----------------------------------------------------------------------+
|SU2 binary restart                 |restart.dat                        |
|Paraview                           |vol_solution.vtu                   |
|Paraview surface                   |surface.vtu                        |
+-----------------------------------------------------------------------+

------------------------- Solver Postprocessing -------------------------
Deleted CNumerics container.
Deleted CIntegration container.
Deleted CSolver container.
Deleted CIteration container.
Deleted CInterface container.
2144|  -10.787805|    0.007735|    0.313478|    0.042754|   -0.701145|
|       10575|  -10.417108|  -10.170657|  -10.537983|  -10.796836|    0.007735|    0.313474|    0.042754|   -0.701386|
|       10600|  -10.422444|  -10.178473|  -10.543973|  -10.805645|    0.007735|    0.313470|    0.042753|   -0.743569|
|       10625|  -10.421424|  -10.185527|  -10.553474|  -10.827655|    0.007735|    0.313466|    0.042753|   -0.683186|
|       10650|  -10.426664|  -10.193433|  -10.559538|  -10.818041|    0.007735|    0.313463|    0.042752|   -0.702546|
|       10675|  -10.430247|  -10.200770|  -10.564926|  -10.827376|    0.007735|    0.313459|    0.042752|   -0.702988|
|       10700|  -10.431006|  -10.207694|  -10.571194|  -10.848633|    0.007735|    0.313456|    0.042752|   -0.685194|
|       10725|  -10.439172|  -10.216174|  -10.572486|  -10.773973|    0.007735|    0.313452|    0.042751|   -0.692242|
|       10750|  -10.439000|  -10.223159|  -10.586290|  -10.844822|    0.007735|    0.313449|    0.042751|   -0.705083|
|       10775|  -10.442733|  -10.230080|  -10.593312|  -10.858801|    0.007735|    0.313445|    0.042751|   -0.704732|
|       10800|  -10.445214|  -10.237616|  -10.600099|  -10.855896|    0.007735|    0.313442|    0.042750|   -0.706580|

----------------------------- Solver Exit -------------------------------
All convergence criteria satisfied.
+-----------------------------------------------------------------------+
|      Convergence Field     |     Value    |   Criterion  |  Converged |
+-----------------------------------------------------------------------+
|                  Cauchy[CL]|   4.99975e-07|       < 5e-07|         Yes|
+-----------------------------------------------------------------------+
-------------------------------------------------------------------------
Deleted CGeometry container.
Deleted CFreeFormDefBox class.
Deleted CSurfaceMovement class.
Deleted CVolumetricMovement class.
Deleted CConfig container.
Deleted nInst container.
+-----------------------------------------------------------------------+
|        File Writing Summary       |              Filename             |
+-----------------------------------------------------------------------+
|SU2 binary restart                 |restart.dat                        |
|Paraview                           |vol_solution.vtu                   |
|Paraview surface                   |surface.vtu                        |
+-----------------------------------------------------------------------+

------------------------- Solver Postprocessing -------------------------
Deleted CNumerics container.
Deleted CIntegration container.
2144|  -10.787805|    0.007735|    0.313478|    0.042754|   -0.701145|
|       10575|  -10.417108|  -10.170657|  -10.537983|  -10.796836|    0.007735|    0.313474|    0.042754|   -0.701386|
|       10600|  -10.422444|  -10.178473|  -10.543973|  -10.805645|    0.007735|    0.313470|    0.042753|   -0.743569|
|       10625|  -10.421424|  -10.185527|  -10.553474|  -10.827655|    0.007735|    0.313466|    0.042753|   -0.683186|
|       10650|  -10.426664|  -10.193433|  -10.559538|  -10.818041|    0.007735|    0.313463|    0.042752|   -0.702546|
|       10675|  -10.430247|  -10.200770|  -10.564926|  -10.827376|    0.007735|    0.313459|    0.042752|   -0.702988|
|       10700|  -10.431006|  -10.207694|  -10.571194|  -10.848633|    0.007735|    0.313456|    0.042752|   -0.685194|
|       10725|  -10.439172|  -10.216174|  -10.572486|  -10.773973|    0.007735|    0.313452|    0.042751|   -0.692242|
|       10750|  -10.439000|  -10.223159|  -10.586290|  -10.844822|    0.007735|    0.313449|    0.042751|   -0.705083|
|       10775|  -10.442733|  -10.230080|  -10.593312|  -10.858801|    0.007735|    0.313445|    0.042751|   -0.704732|
|       10800|  -10.445214|  -10.237616|  -10.600099|  -10.855896|    0.007735|    0.313442|    0.042750|   -0.706580|

----------------------------- Solver Exit -------------------------------
All convergence criteria satisfied.
+-----------------------------------------------------------------------+
|      Convergence Field     |     Value    |   Criterion  |  Converged |
+-----------------------------------------------------------------------+
|                  Cauchy[CL]|   4.99975e-07|       < 5e-07|         Yes|
+-----------------------------------------------------------------------+
-------------------------------------------------------------------------
Deleted CSolver container.
Deleted CIteration container.
Deleted CInterface container.
2144|  -10.787805|    0.007735|    0.313478|    0.042754|   -0.701145|
|       10575|  -10.417108|  -10.170657|  -10.537983|  -10.796836|    0.007735|    0.313474|    0.042754|   -0.701386|
|       10600|  -10.422444|  -10.178473|  -10.543973|  -10.805645|    0.007735|    0.313470|    0.042753|   -0.743569|
|       10625|  -10.421424|  -10.185527|  -10.553474|  -10.827655|    0.007735|    0.313466|    0.042753|   -0.683186|
|       10650|  -10.426664|  -10.193433|  -10.559538|  -10.818041|    0.007735|    0.313463|    0.042752|   -0.702546|
|       10675|  -10.430247|  -10.200770|  -10.564926|  -10.827376|    0.007735|    0.313459|    0.042752|   -0.702988|
|       10700|  -10.431006|  -10.207694|  -10.571194|  -10.848633|    0.007735|    0.313456|    0.042752|   -0.685194|
|       10725|  -10.439172|  -10.216174|  -10.572486|  -10.773973|    0.007735|    0.313452|    0.042751|   -0.692242|
|       10750|  -10.439000|  -10.223159|  -10.586290|  -10.844822|    0.007735|    0.313449|    0.042751|   -0.705083|
|       10775|  -10.442733|  -10.230080|  -10.593312|  -10.858801|    0.007735|    0.313445|    0.042751|   -0.704732|
|       10800|  -10.445214|  -10.237616|  -10.600099|  -10.855896|    0.007735|    0.313442|    0.042750|   -0.706580|

----------------------------- Solver Exit -------------------------------
All convergence criteria satisfied.
+-----------------------------------------------------------------------+
|      Convergence Field     |     Value    |   Criterion  |  Converged |
+-----------------------------------------------------------------------+
|                  Cauchy[CL]|   4.99975e-07|       < 5e-07|         Yes|
+-----------------------------------------------------------------------+
-------------------------------------------------------------------------
2144|  -10.787805|    0.007735|    0.313478|    0.042754|   -0.701145|
|       10575|  -10.417108|  -10.170657|  -10.537983|  -10.796836|    0.007735|    0.313474|    0.042754|   -0.701386|
|       10600|  -10.422444|  -10.178473|  -10.543973|  -10.805645|    0.007735|    0.313470|    0.042753|   -0.743569|
|       10625|  -10.421424|  -10.185527|  -10.553474|  -10.827655|    0.007735|    0.313466|    0.042753|   -0.683186|
|       10650|  -10.426664|  -10.193433|  -10.559538|  -10.818041|    0.007735|    0.313463|    0.042752|   -0.702546|
|       10675|  -10.430247|  -10.200770|  -10.564926|  -10.827376|    0.007735|    0.313459|    0.042752|   -0.702988|
|       10700|  -10.431006|  -10.207694|  -10.571194|  -10.848633|    0.007735|    0.313456|    0.042752|   -0.685194|
|       10725|  -10.439172|  -10.216174|  -10.572486|  -10.773973|    0.007735|    0.313452|    0.042751|   -0.692242|
|       10750|  -10.439000|  -10.223159|  -10.586290|  -10.844822|    0.007735|    0.313449|    0.042751|   -0.705083|
|       10775|  -10.442733|  -10.230080|  -10.593312|  -10.858801|    0.007735|    0.313445|    0.042751|   -0.704732|
|       10800|  -10.445214|  -10.237616|  -10.600099|  -10.855896|    0.007735|    0.313442|    0.042750|   -0.706580|

----------------------------- Solver Exit -------------------------------
All convergence criteria satisfied.
+-----------------------------------------------------------------------+
|      Convergence Field     |     Value    |   Criterion  |  Converged |
+-----------------------------------------------------------------------+
|                  Cauchy[CL]|   4.99975e-07|       < 5e-07|         Yes|
+-----------------------------------------------------------------------+
-------------------------------------------------------------------------
2144|  -10.787805|    0.007735|    0.313478|    0.042754|   -0.701145|
|       10575|  -10.417108|  -10.170657|  -10.537983|  -10.796836|    0.007735|    0.313474|    0.042754|   -0.701386|
|       10600|  -10.422444|  -10.178473|  -10.543973|  -10.805645|    0.007735|    0.313470|    0.042753|   -0.743569|
|       10625|  -10.421424|  -10.185527|  -10.553474|  -10.827655|    0.007735|    0.313466|    0.042753|   -0.683186|
|       10650|  -10.426664|  -10.193433|  -10.559538|  -10.818041|    0.007735|    0.313463|    0.042752|   -0.702546|
|       10675|  -10.430247|  -10.200770|  -10.564926|  -10.827376|    0.007735|    0.313459|    0.042752|   -0.702988|
|       10700|  -10.431006|  -10.207694|  -10.571194|  -10.848633|    0.007735|    0.313456|    0.042752|   -0.685194|
|       10725|  -10.439172|  -10.216174|  -10.572486|  -10.773973|    0.007735|    0.313452|    0.042751|   -0.692242|
|       10750|  -10.439000|  -10.223159|  -10.586290|  -10.844822|    0.007735|    0.313449|    0.042751|   -0.705083|
|       10775|  -10.442733|  -10.230080|  -10.593312|  -10.858801|    0.007735|    0.313445|    0.042751|   -0.704732|
|       10800|  -10.445214|  -10.237616|  -10.600099|  -10.855896|    0.007735|    0.313442|    0.042750|   -0.706580|

----------------------------- Solver Exit -------------------------------
All convergence criteria satisfied.
+-----------------------------------------------------------------------+
|      Convergence Field     |     Value    |   Criterion  |  Converged |
+-----------------------------------------------------------------------+
|                  Cauchy[CL]|   4.99975e-07|       < 5e-07|         Yes|
+-----------------------------------------------------------------------+
-------------------------------------------------------------------------
+-----------------------------------------------------------------------+
|        File Writing Summary       |              Filename             |
+-----------------------------------------------------------------------+
|SU2 binary restart                 |restart.dat                        |
|Paraview                           |vol_solution.vtu                   |
|Paraview surface                   |surface.vtu                        |
+-----------------------------------------------------------------------+

------------------------- Solver Postprocessing -------------------------
Deleted CNumerics container.
Deleted CIntegration container.
Deleted CGeometry container.
Deleted CFreeFormDefBox class.
Deleted CSurfaceMovement class.
Deleted CVolumetricMovement class.
Deleted CConfig container.
Deleted nInst container.
Deleted CSolver container.
Deleted CIteration container.
Deleted CInterface container.
+-----------------------------------------------------------------------+
|        File Writing Summary       |              Filename             |
+-----------------------------------------------------------------------+
|SU2 binary restart                 |restart.dat                        |
|Paraview                           |vol_solution.vtu                   |
|Paraview surface                   |surface.vtu                        |
+-----------------------------------------------------------------------+

------------------------- Solver Postprocessing -------------------------
Deleted CNumerics container.
+-----------------------------------------------------------------------+
|        File Writing Summary       |              Filename             |
+-----------------------------------------------------------------------+
|SU2 binary restart                 |restart.dat                        |
|Paraview                           |vol_solution.vtu                   |
|Paraview surface                   |surface.vtu                        |
+-----------------------------------------------------------------------+

------------------------- Solver Postprocessing -------------------------
+-----------------------------------------------------------------------+
|        File Writing Summary       |              Filename             |
+-----------------------------------------------------------------------+
|SU2 binary restart                 |restart.dat                        |
|Paraview                           |vol_solution.vtu                   |
|Paraview surface                   |surface.vtu                        |
+-----------------------------------------------------------------------+

------------------------- Solver Postprocessing -------------------------
Deleted CNumerics container.
Deleted CNumerics container.
Deleted CIntegration container.
Deleted CIntegration container.
Deleted CIntegration container.
Deleted CSolver container.
Deleted CIteration container.
Deleted CInterface container.
Deleted CSolver container.
Deleted CIteration container.
Deleted CInterface container.
Deleted CSolver container.
Deleted CIteration container.
Deleted CInterface container.
Deleted COutput class.
Deleted COutput class.
-------------------------------------------------------------------------
-------------------------------------------------------------------------


------------------------- Exit Success (SU2_CFD) ------------------------
------------------------- Exit Success (SU2_CFD) ------------------------


Deleted CGeometry container.
Deleted CFreeFormDefBox class.
Deleted CSurfaceMovement class.
Deleted CVolumetricMovement class.
Deleted CConfig container.
Deleted nInst container.
Deleted COutput class.
-------------------------------------------------------------------------

------------------------- Exit Success (SU2_CFD) ------------------------

Deleted CGeometry container.
Deleted CFreeFormDefBox class.
Deleted CSurfaceMovement class.
Deleted CVolumetricMovement class.
Deleted CConfig container.
Deleted nInst container.
Deleted COutput class.
-------------------------------------------------------------------------

------------------------- Exit Success (SU2_CFD) ------------------------

Deleted CGeometry container.
Deleted CFreeFormDefBox class.
Deleted CSurfaceMovement class.
Deleted CVolumetricMovement class.
Deleted CConfig container.
Deleted nInst container.
Deleted COutput class.
-------------------------------------------------------------------------

------------------------- Exit Success (SU2_CFD) ------------------------

Deleted CGeometry container.
Deleted CFreeFormDefBox class.
Deleted CSurfaceMovement class.
Deleted CVolumetricMovement class.
Deleted CConfig container.
Deleted nInst container.
Deleted COutput class.
-------------------------------------------------------------------------

------------------------- Exit Success (SU2_CFD) ------------------------

2144|  -10.787805|    0.007735|    0.313478|    0.042754|   -0.701145|
|       10575|  -10.417108|  -10.170657|  -10.537983|  -10.796836|    0.007735|    0.313474|    0.042754|   -0.701386|
|       10600|  -10.422444|  -10.178473|  -10.543973|  -10.805645|    0.007735|    0.313470|    0.042753|   -0.743569|
|       10625|  -10.421424|  -10.185527|  -10.553474|  -10.827655|    0.007735|    0.313466|    0.042753|   -0.683186|
|       10650|  -10.426664|  -10.193433|  -10.559538|  -10.818041|    0.007735|    0.313463|    0.042752|   -0.702546|
|       10675|  -10.430247|  -10.200770|  -10.564926|  -10.827376|    0.007735|    0.313459|    0.042752|   -0.702988|
|       10700|  -10.431006|  -10.207694|  -10.571194|  -10.848633|    0.007735|    0.313456|    0.042752|   -0.685194|
|       10725|  -10.439172|  -10.216174|  -10.572486|  -10.773973|    0.007735|    0.313452|    0.042751|   -0.692242|
|       10750|  -10.439000|  -10.223159|  -10.586290|  -10.844822|    0.007735|    0.313449|    0.042751|   -0.705083|
|       10775|  -10.442733|  -10.230080|  -10.593312|  -10.858801|    0.007735|    0.313445|    0.042751|   -0.704732|
|       10800|  -10.445214|  -10.237616|  -10.600099|  -10.855896|    0.007735|    0.313442|    0.042750|   -0.706580|

----------------------------- Solver Exit -------------------------------
All convergence criteria satisfied.
+-----------------------------------------------------------------------+
|      Convergence Field     |     Value    |   Criterion  |  Converged |
+-----------------------------------------------------------------------+
|                  Cauchy[CL]|   4.99975e-07|       < 5e-07|         Yes|
+-----------------------------------------------------------------------+
-------------------------------------------------------------------------
+-----------------------------------------------------------------------+
|        File Writing Summary       |              Filename             |
+-----------------------------------------------------------------------+
|SU2 binary restart                 |restart.dat                        |
|Paraview                           |vol_solution.vtu                   |
|Paraview surface                   |surface.vtu                        |
+-----------------------------------------------------------------------+

------------------------- Solver Postprocessing -------------------------
Deleted CNumerics container.
Deleted CIntegration container.
Deleted CSolver container.
Deleted CIteration container.
Deleted CInterface container.
Deleted CGeometry container.
Deleted CFreeFormDefBox class.
Deleted CSurfaceMovement class.
Deleted CVolumetricMovement class.
Deleted CConfig container.
Deleted nInst container.
Deleted COutput class.
-------------------------------------------------------------------------

------------------------- Exit Success (SU2_CFD) ------------------------

