WARNING: The current SST-1994m model is inconsistent with literature. We recommend using the SST-2003m model.
In SU2 v8 the 2003m model will become default, and the inconsistency will be fixed.
WARNING: The current SST-1994m model is inconsistent with literature. We recommend using the SST-2003m model.
In SU2 v8 the 2003m model will become default, and the inconsistency will be fixed.


-------------------------------------------------------------------------
-------------------------------------------------------------------------
|    ___ _   _ ___                                                      |
|    ___ _   _ ___                                                      |
|   / __| | | |_  )   Release 7.5.1 "Blackbird"                         |
|   / __| | | |_  )   Release 7.5.1 "Blackbird"                         |
|   \__ \ |_| |/ /                                                      |
|   \__ \ |_| |/ /                                                      |
|   |___/\___//___|   Suite (Computational Fluid Dynamics Code)         |
|   |___/\___//___|   Suite (Computational Fluid Dynamics Code)         |
|                                                                       |
|                                                                       |
-------------------------------------------------------------------------
-------------------------------------------------------------------------
| SU2 Project Website: https://su2code.github.io                        |
| SU2 Project Website: https://su2code.github.io                        |
|                                                                       |
|                                                                       |
| The SU2 Project is maintained by the SU2 Foundation                   |
| The SU2 Project is maintained by the SU2 Foundation                   |
| (http://su2foundation.org)                                            |
| (http://su2foundation.org)                                            |
-------------------------------------------------------------------------
-------------------------------------------------------------------------
| Copyright 2012-2023, SU2 Contributors                                 |
| Copyright 2012-2023, SU2 Contributors                                 |
|                                                                       |
|                                                                       |
| SU2 is free software; you can redistribute it and/or                  |
| SU2 is free software; you can redistribute it and/or                  |
| modify it under the terms of the GNU Lesser General Public            |
| modify it under the terms of the GNU Lesser General Public            |
| License as published by the Free Software Foundation; either          |
| License as published by the Free Software Foundation; either          |
| version 2.1 of the License, or (at your option) any later version.    |
| version 2.1 of the License, or (at your option) any later version.    |
|                                                                       |
|                                                                       |
| SU2 is distributed in the hope that it will be useful,                |
| SU2 is distributed in the hope that it will be useful,                |
| but WITHOUT ANY WARRANTY; without even the implied warranty of        |
| but WITHOUT ANY WARRANTY; without even the implied warranty of        |
| MERCHANTABILITY or FITNESS FOR A PARTICULAR PURPOSE. See the GNU      |
| MERCHANTABILITY or FITNESS FOR A PARTICULAR PURPOSE. See the GNU      |
| Lesser General Public License for more details.                       |
| Lesser General Public License for more details.                       |
|                                                                       |
|                                                                       |
| You should have received a copy of the GNU Lesser General Public      |
| You should have received a copy of the GNU Lesser General Public      |
| License along with SU2. If not, see <http://www.gnu.org/licenses/>.   |
| License along with SU2. If not, see <http://www.gnu.org/licenses/>.   |
-------------------------------------------------------------------------
-------------------------------------------------------------------------
WARNING: The current SST-1994m model is inconsistent with literature. We recommend using the SST-2003m model.
In SU2 v8 the 2003m model will become default, and the inconsistency will be fixed.

Parsing config file for zone 0
WARNING: The current SST-1994m model is inconsistent with literature. We recommend using the SST-2003m model.
In SU2 v8 the 2003m model will become default, and the inconsistency will be fixed.

Parsing config file for zone 0
WARNING: The current SST-1994m model is inconsistent with literature. We recommend using the SST-2003m model.
In SU2 v8 the 2003m model will become default, and the inconsistency will be fixed.
WARNING: The current SST-1994m model is inconsistent with literature. We recommend using the SST-2003m model.
In SU2 v8 the 2003m model will become default, and the inconsistency will be fixed.


-------------------------------------------------------------------------
----------------- Physical Case Definition ( Zone 0 ) -------------------
Compressible RANS equations.
|    ___ _   _ ___                                                      |
Turbulence model: Menter's k-omega SST-1994m with no production modification.
|   / __| | | |_  )   Release 7.5.1 "Blackbird"                         |
Hybrid RANS/LES: No Hybrid RANS/LES
|   \__ \ |_| |/ /                                                      |
Mach number: 0.5.
|   |___/\___//___|   Suite (Computational Fluid Dynamics Code)         |
Angle of attack (AoA): 6 deg, and angle of sideslip (AoS): 0 deg.
|                                                                       |
Reynolds number: 3.04932e+07. Reference length 2.62.
-------------------------------------------------------------------------
No restart solution, use the values at infinity (freestream).
| SU2 Project Website: https://su2code.github.io                        |
Non-Dimensional simulation (V=Mach, Rho=1.0, T=1.0 at the farfield).
|                                                                       |
The reference area is 2.62 m^2.
| The SU2 Project is maintained by the SU2 Foundation                   |
The semi-span will be computed using the max y(3D) value.
| (http://su2foundation.org)                                            |
The reference length is 2.62 m.
-------------------------------------------------------------------------
Reference origin for moment evaluation is (1, 0, 0).
| Copyright 2012-2023, SU2 Contributors                                 |
Surface(s) where the force coefficients are evaluated: wall.
|                                                                       |

| SU2 is free software; you can redistribute it and/or                  |
Surface(s) plotted in the output file: wall.
| modify it under the terms of the GNU Lesser General Public            |
Input mesh file name: su2meshEx.su2
| License as published by the Free Software Foundation; either          |

WARNING: The current SST-1994m model is inconsistent with literature. We recommend using the SST-2003m model.
In SU2 v8 the 2003m model will become default, and the inconsistency will be fixed.
| version 2.1 of the License, or (at your option) any later version.    |
--------------- Space Numerical Integration ( Zone 0 ) ------------------

|                                                                       |
Roe (with entropy fix = 1e-05) solver for the flow inviscid terms.
----------------- Physical Case Definition ( Zone 0 ) -------------------
| SU2 is distributed in the hope that it will be useful,                |
Standard Roe without low-dissipation function.
Compressible RANS equations.
| but WITHOUT ANY WARRANTY; without even the implied warranty of        |
Second order integration in space, with slope limiter.
Van Albada slope-limiting method implemented by edges.
Turbulence model: Menter's k-omega SST-1994m with no production modification.
| MERCHANTABILITY or FITNESS FOR A PARTICULAR PURPOSE. See the GNU      |
Scalar upwind solver for the turbulence model.
Hybrid RANS/LES: No Hybrid RANS/LES
| Lesser General Public License for more details.                       |
First order integration in space.
Mach number: 0.5.
|                                                                       |
Average of gradients with correction (viscous flow terms).
Angle of attack (AoA): 6 deg, and angle of sideslip (AoS): 0 deg.
| You should have received a copy of the GNU Lesser General Public      |
Average of gradients with correction (viscous turbulence terms).
Reynolds number: 3.04932e+07. Reference length 2.62.
| License along with SU2. If not, see <http://www.gnu.org/licenses/>.   |
Gradient for upwind reconstruction: Green-Gauss.
No restart solution, use the values at infinity (freestream).
-------------------------------------------------------------------------
Gradient for viscous and source terms: Green-Gauss.
Non-Dimensional simulation (V=Mach, Rho=1.0, T=1.0 at the farfield).

The reference area is 2.62 m^2.
--------------- Time Numerical Integration  ( Zone 0 ) ------------------
The semi-span will be computed using the max y(3D) value.
Local time stepping (steady state simulation).
The reference length is 2.62 m.
Euler implicit method for the flow equations.
Reference origin for moment evaluation is (1, 0, 0).
FGMRES is used for solving the linear system.
Surface(s) where the force coefficients are evaluated: wall.
Using a ILU(0) preconditioning.

Convergence criteria of the linear solver: 0.2.
Surface(s) plotted in the output file: wall.
Max number of linear iterations: 4.
Input mesh file name: su2meshEx.su2
CFL adaptation. Factor down: 0.1, factor up: 1.2,
                lower limit: 25, upper limit: 1000,
                acceptable linear residual: 0.001.

Courant-Friedrichs-Lewy number:       25
--------------- Space Numerical Integration ( Zone 0 ) ------------------
Euler implicit time integration for the turbulence model.
Roe (with entropy fix = 1e-05) solver for the flow inviscid terms.

Standard Roe without low-dissipation function.
------------------ Convergence Criteria  ( Zone 0 ) ---------------------
Second order integration in space, with slope limiter.
Van Albada slope-limiting method implemented by edges.
Maximum number of solver subiterations: 700.
Scalar upwind solver for the turbulence model.
Begin convergence monitoring at iteration 10.
First order integration in space.
Residual minimum value: 1e-11.5.
Average of gradients with correction (viscous flow terms).
Cauchy series min. value: 5e-07.
Average of gradients with correction (viscous turbulence terms).
Number of Cauchy elements: 500.
Gradient for upwind reconstruction: Green-Gauss.
Begin windowed time average at iteration 0.
Gradient for viscous and source terms: Green-Gauss.


-------------------- Output Information ( Zone 0 ) ----------------------
--------------- Time Numerical Integration  ( Zone 0 ) ------------------
File writing frequency: 
Local time stepping (steady state simulation).
+------------------------------------+
|                     File| Frequency|
+------------------------------------+
|                  RESTART|       300|
|                 PARAVIEW|       300|
|         SURFACE_PARAVIEW|       300|
+------------------------------------+
Writing the convergence history file every 1 inner iterations.
Euler implicit method for the flow equations.
Writing the screen convergence history every 25 inner iterations.
FGMRES is used for solving the linear system.
The tabular file format is CSV (.csv).
Using a ILU(0) preconditioning.
Convergence history file name: history.
Convergence criteria of the linear solver: 0.2.
Forces breakdown file name: forces_breakdown.dat.
Max number of linear iterations: 4.
Surface file name: surface.
CFL adaptation. Factor down: 0.1, factor up: 1.2,
                lower limit: 25, upper limit: 1000,
                acceptable linear residual: 0.001.
Volume file name: vol_solution.
Courant-Friedrichs-Lewy number:       25
Restart file name: restart.dat.
Euler implicit time integration for the turbulence model.


------------- Config File Boundary Information ( Zone 0 ) ---------------
------------------ Convergence Criteria  ( Zone 0 ) ---------------------
Maximum number of solver subiterations: 700.
Begin convergence monitoring at iteration 10.
Residual minimum value: 1e-11.5.
Cauchy series min. value: 5e-07.
Number of Cauchy elements: 500.
Begin windowed time average at iteration 0.
+-----------------------------------------------------------------------+
|                        Marker Type|                        Marker Name|
+-----------------------------------------------------------------------+
|                          Far-field|                          far-field|
+-----------------------------------------------------------------------+
|                     Heat flux wall|                               wall|
+-----------------------------------------------------------------------+


-------------------- Output Preprocessing ( Zone 0 ) --------------------
-------------------- Output Information ( Zone 0 ) ----------------------
File writing frequency: 
+------------------------------------+
|                     File| Frequency|
+------------------------------------+
|                  RESTART|       300|
|                 PARAVIEW|       300|
|         SURFACE_PARAVIEW|       300|
+------------------------------------+
Writing the convergence history file every 1 inner iterations.
Writing the screen convergence history every 25 inner iterations.
The tabular file format is CSV (.csv).
Convergence history file name: history.
Forces breakdown file name: forces_breakdown.dat.

WARNING: SURFACE_PRESSURE_DROP can only be computed for at least 2 surfaces (outlet, inlet, ...)

Surface file name: surface.
Volume file name: vol_solution.
Restart file name: restart.dat.

------------- Config File Boundary Information ( Zone 0 ) ---------------
  Info: Ignoring the following screen output fields:
  RMS_NU_TILDE
Screen output fields: INNER_ITER, RMS_DENSITY, RMS_MOMENTUM-X, RMS_MOMENTUM-Y, RMS_ENERGY, DRAG, LIFT, MOMENT_Z, LINSOL_RESIDUAL
+-----------------------------------------------------------------------+
|                        Marker Type|                        Marker Name|
+-----------------------------------------------------------------------+
|                          Far-field|                          far-field|
+-----------------------------------------------------------------------+
|                     Heat flux wall|                               wall|
+-----------------------------------------------------------------------+

History output group(s): ITER, RMS_RES, AERO_COEFF
-------------------- Output Preprocessing ( Zone 0 ) --------------------
Convergence field(s): LIFT
Warning: No (valid) fields chosen for time convergence monitoring. Time convergence monitoring inactive.

WARNING: SURFACE_PRESSURE_DROP can only be computed for at least 2 surfaces (outlet, inlet, ...)

WARNING: The current SST-1994m model is inconsistent with literature. We recommend using the SST-2003m model.
In SU2 v8 the 2003m model will become default, and the inconsistency will be fixed.

Parsing config file for zone 0
  Info: Ignoring the following screen output fields:
  RMS_NU_TILDE
Screen output fields: INNER_ITER, RMS_DENSITY, RMS_MOMENTUM-X, RMS_MOMENTUM-Y, RMS_ENERGY, DRAG, LIFT, MOMENT_Z, LINSOL_RESIDUAL
History output group(s): ITER, RMS_RES, AERO_COEFF
Convergence field(s): LIFT
Volume output fields: COORDINATES, SOLUTION, PRIMITIVE
Warning: No (valid) fields chosen for time convergence monitoring. Time convergence monitoring inactive.

------------------- Geometry Preprocessing ( Zone 0 ) -------------------
Volume output fields: COORDINATES, SOLUTION, PRIMITIVE

------------------- Geometry Preprocessing ( Zone 0 ) -------------------
WARNING: The current SST-1994m model is inconsistent with literature. We recommend using the SST-2003m model.
In SU2 v8 the 2003m model will become default, and the inconsistency will be fixed.

----------------- Physical Case Definition ( Zone 0 ) -------------------
Compressible RANS equations.
Turbulence model: Menter's k-omega SST-1994m with no production modification.
Hybrid RANS/LES: No Hybrid RANS/LES
Mach number: 0.5.
Angle of attack (AoA): 6 deg, and angle of sideslip (AoS): 0 deg.
Reynolds number: 3.04932e+07. Reference length 2.62.
No restart solution, use the values at infinity (freestream).
Non-Dimensional simulation (V=Mach, Rho=1.0, T=1.0 at the farfield).
The reference area is 2.62 m^2.
The semi-span will be computed using the max y(3D) value.
The reference length is 2.62 m.
Reference origin for moment evaluation is (1, 0, 0).
Surface(s) where the force coefficients are evaluated: wall.

Surface(s) plotted in the output file: wall.
Input mesh file name: su2meshEx.su2

--------------- Space Numerical Integration ( Zone 0 ) ------------------
Roe (with entropy fix = 1e-05) solver for the flow inviscid terms.
Standard Roe without low-dissipation function.
Second order integration in space, with slope limiter.
Van Albada slope-limiting method implemented by edges.
Scalar upwind solver for the turbulence model.
First order integration in space.
Average of gradients with correction (viscous flow terms).
Average of gradients with correction (viscous turbulence terms).
Gradient for upwind reconstruction: Green-Gauss.
Gradient for viscous and source terms: Green-Gauss.

--------------- Time Numerical Integration  ( Zone 0 ) ------------------
Local time stepping (steady state simulation).
Euler implicit method for the flow equations.
FGMRES is used for solving the linear system.
Using a ILU(0) preconditioning.
Convergence criteria of the linear solver: 0.2.
Max number of linear iterations: 4.
CFL adaptation. Factor down: 0.1, factor up: 1.2,
                lower limit: 25, upper limit: 1000,
                acceptable linear residual: 0.001.
Courant-Friedrichs-Lewy number:       25
Euler implicit time integration for the turbulence model.

------------------ Convergence Criteria  ( Zone 0 ) ---------------------
Maximum number of solver subiterations: 700.
Begin convergence monitoring at iteration 10.
Residual minimum value: 1e-11.5.
Cauchy series min. value: 5e-07.
Number of Cauchy elements: 500.
Begin windowed time average at iteration 0.

-------------------- Output Information ( Zone 0 ) ----------------------
File writing frequency: 
+------------------------------------+
|                     File| Frequency|
+------------------------------------+
|                  RESTART|       300|
|                 PARAVIEW|       300|
|         SURFACE_PARAVIEW|       300|
+------------------------------------+
Writing the convergence history file every 1 inner iterations.
Writing the screen convergence history every 25 inner iterations.
The tabular file format is CSV (.csv).
Convergence history file name: history.
Forces breakdown file name: forces_breakdown.dat.
Surface file name: surface.
Volume file name: vol_solution.
Restart file name: restart.dat.

------------- Config File Boundary Information ( Zone 0 ) ---------------
+-----------------------------------------------------------------------+
|                        Marker Type|                        Marker Name|
+-----------------------------------------------------------------------+
|                          Far-field|                          far-field|
+-----------------------------------------------------------------------+
|                     Heat flux wall|                               wall|
+-----------------------------------------------------------------------+

-------------------- Output Preprocessing ( Zone 0 ) --------------------

WARNING: SURFACE_PRESSURE_DROP can only be computed for at least 2 surfaces (outlet, inlet, ...)

  Info: Ignoring the following screen output fields:
  RMS_NU_TILDE
Screen output fields: INNER_ITER, RMS_DENSITY, RMS_MOMENTUM-X, RMS_MOMENTUM-Y, RMS_ENERGY, DRAG, LIFT, MOMENT_Z, LINSOL_RESIDUAL
History output group(s): ITER, RMS_RES, AERO_COEFF
Convergence field(s): LIFT
Warning: No (valid) fields chosen for time convergence monitoring. Time convergence monitoring inactive.
Volume output fields: COORDINATES, SOLUTION, PRIMITIVE

------------------- Geometry Preprocessing ( Zone 0 ) -------------------
WARNING: The current SST-1994m model is inconsistent with literature. We recommend using the SST-2003m model.
In SU2 v8 the 2003m model will become default, and the inconsistency will be fixed.

-------------------------------------------------------------------------
|    ___ _   _ ___                                                      |
|   / __| | | |_  )   Release 7.5.1 "Blackbird"                         |
|   \__ \ |_| |/ /                                                      |
|   |___/\___//___|   Suite (Computational Fluid Dynamics Code)         |
|                                                                       |
-------------------------------------------------------------------------
| SU2 Project Website: https://su2code.github.io                        |
|                                                                       |
| The SU2 Project is maintained by the SU2 Foundation                   |
| (http://su2foundation.org)                                            |
-------------------------------------------------------------------------
| Copyright 2012-2023, SU2 Contributors                                 |
|                                                                       |
| SU2 is free software; you can redistribute it and/or                  |
| modify it under the terms of the GNU Lesser General Public            |
| License as published by the Free Software Foundation; either          |
| version 2.1 of the License, or (at your option) any later version.    |
|                                                                       |
| SU2 is distributed in the hope that it will be useful,                |
| but WITHOUT ANY WARRANTY; without even the implied warranty of        |
| MERCHANTABILITY or FITNESS FOR A PARTICULAR PURPOSE. See the GNU      |
| Lesser General Public License for more details.                       |
|                                                                       |
| You should have received a copy of the GNU Lesser General Public      |
| License along with SU2. If not, see <http://www.gnu.org/licenses/>.   |
-------------------------------------------------------------------------
WARNING: The current SST-1994m model is inconsistent with literature. We recommend using the SST-2003m model.
In SU2 v8 the 2003m model will become default, and the inconsistency will be fixed.

Parsing config file for zone 0
WARNING: The current SST-1994m model is inconsistent with literature. We recommend using the SST-2003m model.
In SU2 v8 the 2003m model will become default, and the inconsistency will be fixed.

----------------- Physical Case Definition ( Zone 0 ) -------------------
Compressible RANS equations.
Turbulence model: Menter's k-omega SST-1994m with no production modification.
Hybrid RANS/LES: No Hybrid RANS/LES
Mach number: 0.5.
Angle of attack (AoA): 6 deg, and angle of sideslip (AoS): 0 deg.
Reynolds number: 3.04932e+07. Reference length 2.62.
No restart solution, use the values at infinity (freestream).
Non-Dimensional simulation (V=Mach, Rho=1.0, T=1.0 at the farfield).
The reference area is 2.62 m^2.
The semi-span will be computed using the max y(3D) value.
The reference length is 2.62 m.
Reference origin for moment evaluation is (1, 0, 0).
Surface(s) where the force coefficients are evaluated: wall.

Surface(s) plotted in the output file: wall.
Input mesh file name: su2meshEx.su2

--------------- Space Numerical Integration ( Zone 0 ) ------------------
Roe (with entropy fix = 1e-05) solver for the flow inviscid terms.
Standard Roe without low-dissipation function.
Second order integration in space, with slope limiter.
Van Albada slope-limiting method implemented by edges.
Scalar upwind solver for the turbulence model.
First order integration in space.
Average of gradients with correction (viscous flow terms).
Average of gradients with correction (viscous turbulence terms).
Gradient for upwind reconstruction: Green-Gauss.
Gradient for viscous and source terms: Green-Gauss.

--------------- Time Numerical Integration  ( Zone 0 ) ------------------
Local time stepping (steady state simulation).
Euler implicit method for the flow equations.
FGMRES is used for solving the linear system.
Using a ILU(0) preconditioning.
Convergence criteria of the linear solver: 0.2.
Max number of linear iterations: 4.
CFL adaptation. Factor down: 0.1, factor up: 1.2,
                lower limit: 25, upper limit: 1000,
                acceptable linear residual: 0.001.
Courant-Friedrichs-Lewy number:       25
Euler implicit time integration for the turbulence model.

------------------ Convergence Criteria  ( Zone 0 ) ---------------------
Maximum number of solver subiterations: 700.
Begin convergence monitoring at iteration 10.
Residual minimum value: 1e-11.5.
Cauchy series min. value: 5e-07.
Number of Cauchy elements: 500.
Begin windowed time average at iteration 0.

-------------------- Output Information ( Zone 0 ) ----------------------
File writing frequency: 
+------------------------------------+
|                     File| Frequency|
+------------------------------------+
|                  RESTART|       300|
|                 PARAVIEW|       300|
|         SURFACE_PARAVIEW|       300|
+------------------------------------+
Writing the convergence history file every 1 inner iterations.
Writing the screen convergence history every 25 inner iterations.
The tabular file format is CSV (.csv).
Convergence history file name: history.
Forces breakdown file name: forces_breakdown.dat.
Surface file name: surface.
Volume file name: vol_solution.
Restart file name: restart.dat.

------------- Config File Boundary Information ( Zone 0 ) ---------------
+-----------------------------------------------------------------------+
|                        Marker Type|                        Marker Name|
+-----------------------------------------------------------------------+
|                          Far-field|                          far-field|
+-----------------------------------------------------------------------+
|                     Heat flux wall|                               wall|
+-----------------------------------------------------------------------+

-------------------- Output Preprocessing ( Zone 0 ) --------------------

WARNING: SURFACE_PRESSURE_DROP can only be computed for at least 2 surfaces (outlet, inlet, ...)

  Info: Ignoring the following screen output fields:
  RMS_NU_TILDE
Screen output fields: INNER_ITER, RMS_DENSITY, RMS_MOMENTUM-X, RMS_MOMENTUM-Y, RMS_ENERGY, DRAG, LIFT, MOMENT_Z, LINSOL_RESIDUAL
History output group(s): ITER, RMS_RES, AERO_COEFF
Convergence field(s): LIFT
Warning: No (valid) fields chosen for time convergence monitoring. Time convergence monitoring inactive.
Volume output fields: COORDINATES, SOLUTION, PRIMITIVE

------------------- Geometry Preprocessing ( Zone 0 ) -------------------
WARNING: The current SST-1994m model is inconsistent with literature. We recommend using the SST-2003m model.
In SU2 v8 the 2003m model will become default, and the inconsistency will be fixed.

-------------------------------------------------------------------------
|    ___ _   _ ___                                                      |
|   / __| | | |_  )   Release 7.5.1 "Blackbird"                         |
|   \__ \ |_| |/ /                                                      |
|   |___/\___//___|   Suite (Computational Fluid Dynamics Code)         |
|                                                                       |
-------------------------------------------------------------------------
| SU2 Project Website: https://su2code.github.io                        |
|                                                                       |
| The SU2 Project is maintained by the SU2 Foundation                   |
| (http://su2foundation.org)                                            |
-------------------------------------------------------------------------
| Copyright 2012-2023, SU2 Contributors                                 |
|                                                                       |
| SU2 is free software; you can redistribute it and/or                  |
| modify it under the terms of the GNU Lesser General Public            |
| License as published by the Free Software Foundation; either          |
| version 2.1 of the License, or (at your option) any later version.    |
|                                                                       |
| SU2 is distributed in the hope that it will be useful,                |
| but WITHOUT ANY WARRANTY; without even the implied warranty of        |
| MERCHANTABILITY or FITNESS FOR A PARTICULAR PURPOSE. See the GNU      |
| Lesser General Public License for more details.                       |
|                                                                       |
| You should have received a copy of the GNU Lesser General Public      |
| License along with SU2. If not, see <http://www.gnu.org/licenses/>.   |
-------------------------------------------------------------------------
WARNING: The current SST-1994m model is inconsistent with literature. We recommend using the SST-2003m model.
In SU2 v8 the 2003m model will become default, and the inconsistency will be fixed.

Parsing config file for zone 0
WARNING: The current SST-1994m model is inconsistent with literature. We recommend using the SST-2003m model.
In SU2 v8 the 2003m model will become default, and the inconsistency will be fixed.

----------------- Physical Case Definition ( Zone 0 ) -------------------
Compressible RANS equations.
Turbulence model: Menter's k-omega SST-1994m with no production modification.
Hybrid RANS/LES: No Hybrid RANS/LES
Mach number: 0.5.
Angle of attack (AoA): 6 deg, and angle of sideslip (AoS): 0 deg.
Reynolds number: 3.04932e+07. Reference length 2.62.
No restart solution, use the values at infinity (freestream).
Non-Dimensional simulation (V=Mach, Rho=1.0, T=1.0 at the farfield).
The reference area is 2.62 m^2.
The semi-span will be computed using the max y(3D) value.
The reference length is 2.62 m.
Reference origin for moment evaluation is (1, 0, 0).
Surface(s) where the force coefficients are evaluated: wall.

Surface(s) plotted in the output file: wall.
Input mesh file name: su2meshEx.su2

--------------- Space Numerical Integration ( Zone 0 ) ------------------
Roe (with entropy fix = 1e-05) solver for the flow inviscid terms.
Standard Roe without low-dissipation function.
Second order integration in space, with slope limiter.
Van Albada slope-limiting method implemented by edges.
Scalar upwind solver for the turbulence model.
First order integration in space.
Average of gradients with correction (viscous flow terms).
Average of gradients with correction (viscous turbulence terms).
Gradient for upwind reconstruction: Green-Gauss.
Gradient for viscous and source terms: Green-Gauss.

--------------- Time Numerical Integration  ( Zone 0 ) ------------------
Local time stepping (steady state simulation).
Euler implicit method for the flow equations.
FGMRES is used for solving the linear system.
Using a ILU(0) preconditioning.
Convergence criteria of the linear solver: 0.2.
Max number of linear iterations: 4.
CFL adaptation. Factor down: 0.1, factor up: 1.2,
                lower limit: 25, upper limit: 1000,
                acceptable linear residual: 0.001.
Courant-Friedrichs-Lewy number:       25
Euler implicit time integration for the turbulence model.

------------------ Convergence Criteria  ( Zone 0 ) ---------------------
Maximum number of solver subiterations: 700.
Begin convergence monitoring at iteration 10.
Residual minimum value: 1e-11.5.
Cauchy series min. value: 5e-07.
Number of Cauchy elements: 500.
Begin windowed time average at iteration 0.

-------------------- Output Information ( Zone 0 ) ----------------------
File writing frequency: 
+------------------------------------+
|                     File| Frequency|
+------------------------------------+
|                  RESTART|       300|
|                 PARAVIEW|       300|
|         SURFACE_PARAVIEW|       300|
+------------------------------------+
Writing the convergence history file every 1 inner iterations.
Writing the screen convergence history every 25 inner iterations.
The tabular file format is CSV (.csv).
Convergence history file name: history.
Forces breakdown file name: forces_breakdown.dat.
Surface file name: surface.
Volume file name: vol_solution.
Restart file name: restart.dat.

------------- Config File Boundary Information ( Zone 0 ) ---------------
+-----------------------------------------------------------------------+
|                        Marker Type|                        Marker Name|
+-----------------------------------------------------------------------+
|                          Far-field|                          far-field|
+-----------------------------------------------------------------------+
|                     Heat flux wall|                               wall|
+-----------------------------------------------------------------------+

-------------------- Output Preprocessing ( Zone 0 ) --------------------

WARNING: SURFACE_PRESSURE_DROP can only be computed for at least 2 surfaces (outlet, inlet, ...)

  Info: Ignoring the following screen output fields:
  RMS_NU_TILDE
Screen output fields: INNER_ITER, RMS_DENSITY, RMS_MOMENTUM-X, RMS_MOMENTUM-Y, RMS_ENERGY, DRAG, LIFT, MOMENT_Z, LINSOL_RESIDUAL
History output group(s): ITER, RMS_RES, AERO_COEFF
Convergence field(s): LIFT
Warning: No (valid) fields chosen for time convergence monitoring. Time convergence monitoring inactive.
Volume output fields: COORDINATES, SOLUTION, PRIMITIVE

------------------- Geometry Preprocessing ( Zone 0 ) -------------------
WARNING: The current SST-1994m model is inconsistent with literature. We recommend using the SST-2003m model.
In SU2 v8 the 2003m model will become default, and the inconsistency will be fixed.

-------------------------------------------------------------------------
|    ___ _   _ ___                                                      |
|   / __| | | |_  )   Release 7.5.1 "Blackbird"                         |
|   \__ \ |_| |/ /                                                      |
|   |___/\___//___|   Suite (Computational Fluid Dynamics Code)         |
|                                                                       |
-------------------------------------------------------------------------
| SU2 Project Website: https://su2code.github.io                        |
|                                                                       |
| The SU2 Project is maintained by the SU2 Foundation                   |
| (http://su2foundation.org)                                            |
-------------------------------------------------------------------------
| Copyright 2012-2023, SU2 Contributors                                 |
|                                                                       |
| SU2 is free software; you can redistribute it and/or                  |
| modify it under the terms of the GNU Lesser General Public            |
| License as published by the Free Software Foundation; either          |
| version 2.1 of the License, or (at your option) any later version.    |
|                                                                       |
| SU2 is distributed in the hope that it will be useful,                |
| but WITHOUT ANY WARRANTY; without even the implied warranty of        |
| MERCHANTABILITY or FITNESS FOR A PARTICULAR PURPOSE. See the GNU      |
| Lesser General Public License for more details.                       |
|                                                                       |
| You should have received a copy of the GNU Lesser General Public      |
| License along with SU2. If not, see <http://www.gnu.org/licenses/>.   |
-------------------------------------------------------------------------
WARNING: The current SST-1994m model is inconsistent with literature. We recommend using the SST-2003m model.
In SU2 v8 the 2003m model will become default, and the inconsistency will be fixed.

Parsing config file for zone 0
WARNING: The current SST-1994m model is inconsistent with literature. We recommend using the SST-2003m model.
In SU2 v8 the 2003m model will become default, and the inconsistency will be fixed.

----------------- Physical Case Definition ( Zone 0 ) -------------------
Compressible RANS equations.
Turbulence model: Menter's k-omega SST-1994m with no production modification.
Hybrid RANS/LES: No Hybrid RANS/LES
Mach number: 0.5.
Angle of attack (AoA): 6 deg, and angle of sideslip (AoS): 0 deg.
Reynolds number: 3.04932e+07. Reference length 2.62.
No restart solution, use the values at infinity (freestream).
Non-Dimensional simulation (V=Mach, Rho=1.0, T=1.0 at the farfield).
The reference area is 2.62 m^2.
The semi-span will be computed using the max y(3D) value.
The reference length is 2.62 m.
Reference origin for moment evaluation is (1, 0, 0).
Surface(s) where the force coefficients are evaluated: wall.

Surface(s) plotted in the output file: wall.
Input mesh file name: su2meshEx.su2

--------------- Space Numerical Integration ( Zone 0 ) ------------------
Roe (with entropy fix = 1e-05) solver for the flow inviscid terms.
Standard Roe without low-dissipation function.
Second order integration in space, with slope limiter.
Van Albada slope-limiting method implemented by edges.
Scalar upwind solver for the turbulence model.
First order integration in space.
Average of gradients with correction (viscous flow terms).
Average of gradients with correction (viscous turbulence terms).
Gradient for upwind reconstruction: Green-Gauss.
Gradient for viscous and source terms: Green-Gauss.

--------------- Time Numerical Integration  ( Zone 0 ) ------------------
Local time stepping (steady state simulation).
Euler implicit method for the flow equations.
FGMRES is used for solving the linear system.
Using a ILU(0) preconditioning.
Convergence criteria of the linear solver: 0.2.
Max number of linear iterations: 4.
CFL adaptation. Factor down: 0.1, factor up: 1.2,
                lower limit: 25, upper limit: 1000,
                acceptable linear residual: 0.001.
Courant-Friedrichs-Lewy number:       25
Euler implicit time integration for the turbulence model.

------------------ Convergence Criteria  ( Zone 0 ) ---------------------
Maximum number of solver subiterations: 700.
Begin convergence monitoring at iteration 10.
Residual minimum value: 1e-11.5.
Cauchy series min. value: 5e-07.
Number of Cauchy elements: 500.
Begin windowed time average at iteration 0.

-------------------- Output Information ( Zone 0 ) ----------------------
File writing frequency: 
+------------------------------------+
|                     File| Frequency|
+------------------------------------+
|                  RESTART|       300|
|                 PARAVIEW|       300|
|         SURFACE_PARAVIEW|       300|
+------------------------------------+
Writing the convergence history file every 1 inner iterations.
Writing the screen convergence history every 25 inner iterations.
The tabular file format is CSV (.csv).
Convergence history file name: history.
Forces breakdown file name: forces_breakdown.dat.
Surface file name: surface.
Volume file name: vol_solution.
Restart file name: restart.dat.

------------- Config File Boundary Information ( Zone 0 ) ---------------
+-----------------------------------------------------------------------+
|                        Marker Type|                        Marker Name|
+-----------------------------------------------------------------------+
|                          Far-field|                          far-field|
+-----------------------------------------------------------------------+
|                     Heat flux wall|                               wall|
+-----------------------------------------------------------------------+

-------------------- Output Preprocessing ( Zone 0 ) --------------------

WARNING: SURFACE_PRESSURE_DROP can only be computed for at least 2 surfaces (outlet, inlet, ...)

  Info: Ignoring the following screen output fields:
  RMS_NU_TILDE
Screen output fields: INNER_ITER, RMS_DENSITY, RMS_MOMENTUM-X, RMS_MOMENTUM-Y, RMS_ENERGY, DRAG, LIFT, MOMENT_Z, LINSOL_RESIDUAL
History output group(s): ITER, RMS_RES, AERO_COEFF
Convergence field(s): LIFT
Warning: No (valid) fields chosen for time convergence monitoring. Time convergence monitoring inactive.
Volume output fields: COORDINATES, SOLUTION, PRIMITIVE

------------------- Geometry Preprocessing ( Zone 0 ) -------------------
WARNING: The current SST-1994m model is inconsistent with literature. We recommend using the SST-2003m model.
In SU2 v8 the 2003m model will become default, and the inconsistency will be fixed.

-------------------------------------------------------------------------
|    ___ _   _ ___                                                      |
|   / __| | | |_  )   Release 7.5.1 "Blackbird"                         |
|   \__ \ |_| |/ /                                                      |
|   |___/\___//___|   Suite (Computational Fluid Dynamics Code)         |
|                                                                       |
-------------------------------------------------------------------------
| SU2 Project Website: https://su2code.github.io                        |
|                                                                       |
| The SU2 Project is maintained by the SU2 Foundation                   |
| (http://su2foundation.org)                                            |
-------------------------------------------------------------------------
| Copyright 2012-2023, SU2 Contributors                                 |
|                                                                       |
| SU2 is free software; you can redistribute it and/or                  |
| modify it under the terms of the GNU Lesser General Public            |
| License as published by the Free Software Foundation; either          |
| version 2.1 of the License, or (at your option) any later version.    |
|                                                                       |
| SU2 is distributed in the hope that it will be useful,                |
| but WITHOUT ANY WARRANTY; without even the implied warranty of        |
| MERCHANTABILITY or FITNESS FOR A PARTICULAR PURPOSE. See the GNU      |
| Lesser General Public License for more details.                       |
|                                                                       |
| You should have received a copy of the GNU Lesser General Public      |
| License along with SU2. If not, see <http://www.gnu.org/licenses/>.   |
-------------------------------------------------------------------------
WARNING: The current SST-1994m model is inconsistent with literature. We recommend using the SST-2003m model.
In SU2 v8 the 2003m model will become default, and the inconsistency will be fixed.

Parsing config file for zone 0
WARNING: The current SST-1994m model is inconsistent with literature. We recommend using the SST-2003m model.
In SU2 v8 the 2003m model will become default, and the inconsistency will be fixed.

----------------- Physical Case Definition ( Zone 0 ) -------------------
Compressible RANS equations.
Turbulence model: Menter's k-omega SST-1994m with no production modification.
Hybrid RANS/LES: No Hybrid RANS/LES
Mach number: 0.5.
Angle of attack (AoA): 6 deg, and angle of sideslip (AoS): 0 deg.
Reynolds number: 3.04932e+07. Reference length 2.62.
No restart solution, use the values at infinity (freestream).
Non-Dimensional simulation (V=Mach, Rho=1.0, T=1.0 at the farfield).
The reference area is 2.62 m^2.
The semi-span will be computed using the max y(3D) value.
The reference length is 2.62 m.
Reference origin for moment evaluation is (1, 0, 0).
Surface(s) where the force coefficients are evaluated: wall.

Surface(s) plotted in the output file: wall.
Input mesh file name: su2meshEx.su2

--------------- Space Numerical Integration ( Zone 0 ) ------------------
Roe (with entropy fix = 1e-05) solver for the flow inviscid terms.
Standard Roe without low-dissipation function.
Second order integration in space, with slope limiter.
Van Albada slope-limiting method implemented by edges.
Scalar upwind solver for the turbulence model.
First order integration in space.
Average of gradients with correction (viscous flow terms).
Average of gradients with correction (viscous turbulence terms).
Gradient for upwind reconstruction: Green-Gauss.
Gradient for viscous and source terms: Green-Gauss.

--------------- Time Numerical Integration  ( Zone 0 ) ------------------
Local time stepping (steady state simulation).
Euler implicit method for the flow equations.
FGMRES is used for solving the linear system.
Using a ILU(0) preconditioning.
Convergence criteria of the linear solver: 0.2.
Max number of linear iterations: 4.
CFL adaptation. Factor down: 0.1, factor up: 1.2,
                lower limit: 25, upper limit: 1000,
                acceptable linear residual: 0.001.
Courant-Friedrichs-Lewy number:       25
Euler implicit time integration for the turbulence model.

------------------ Convergence Criteria  ( Zone 0 ) ---------------------
Maximum number of solver subiterations: 700.
Begin convergence monitoring at iteration 10.
Residual minimum value: 1e-11.5.
Cauchy series min. value: 5e-07.
Number of Cauchy elements: 500.
Begin windowed time average at iteration 0.

-------------------- Output Information ( Zone 0 ) ----------------------
File writing frequency: 
+------------------------------------+
|                     File| Frequency|
+------------------------------------+
|                  RESTART|       300|
|                 PARAVIEW|       300|
|         SURFACE_PARAVIEW|       300|
+------------------------------------+
Writing the convergence history file every 1 inner iterations.
Writing the screen convergence history every 25 inner iterations.
The tabular file format is CSV (.csv).
Convergence history file name: history.
Forces breakdown file name: forces_breakdown.dat.
Surface file name: surface.
Volume file name: vol_solution.
Restart file name: restart.dat.

------------- Config File Boundary Information ( Zone 0 ) ---------------
+-----------------------------------------------------------------------+
|                        Marker Type|                        Marker Name|
+-----------------------------------------------------------------------+
|                          Far-field|                          far-field|
+-----------------------------------------------------------------------+
|                     Heat flux wall|                               wall|
+-----------------------------------------------------------------------+

-------------------- Output Preprocessing ( Zone 0 ) --------------------

WARNING: SURFACE_PRESSURE_DROP can only be computed for at least 2 surfaces (outlet, inlet, ...)

  Info: Ignoring the following screen output fields:
  RMS_NU_TILDE
Screen output fields: INNER_ITER, RMS_DENSITY, RMS_MOMENTUM-X, RMS_MOMENTUM-Y, RMS_ENERGY, DRAG, LIFT, MOMENT_Z, LINSOL_RESIDUAL
History output group(s): ITER, RMS_RES, AERO_COEFF
Convergence field(s): LIFT
Warning: No (valid) fields chosen for time convergence monitoring. Time convergence monitoring inactive.
Volume output fields: COORDINATES, SOLUTION, PRIMITIVE

------------------- Geometry Preprocessing ( Zone 0 ) -------------------
Two dimensional problem.
83111 grid points.
111986 volume elements.
Two dimensional problem.
83111 grid points.
111986 volume elements.
Two dimensional problem.
83111 grid points.
111986 volume elements.
Two dimensional problem.
83111 grid points.
111986 volume elements.
Two dimensional problem.
83111 grid points.
111986 volume elements.
2 surface markers.
76 boundary elements in index 0 (Marker = far-field).
723 boundary elements in index 1 (Marker = wall).
2 surface markers.
76 boundary elements in index 0 (Marker = far-field).
723 boundary elements in index 1 (Marker = wall).
Two dimensional problem.
83111 grid points.
111986 volume elements.
Two dimensional problem.
83111 grid points.
111986 volume elements.
2 surface markers.
76 boundary elements in index 0 (Marker = far-field).
723 boundary elements in index 1 (Marker = wall).
2 surface markers.
76 boundary elements in index 0 (Marker = far-field).
723 boundary elements in index 1 (Marker = wall).
2 surface markers.
76 boundary elements in index 0 (Marker = far-field).
723 boundary elements in index 1 (Marker = wall).
2 surface markers.
76 boundary elements in index 0 (Marker = far-field).
723 boundary elements in index 1 (Marker = wall).
2 surface markers.
76 boundary elements in index 0 (Marker = far-field).
723 boundary elements in index 1 (Marker = wall).
58547 triangles.
53439 quadrilaterals.
58547 triangles.
53439 quadrilaterals.
58547 triangles.
53439 quadrilaterals.
58547 triangles.
53439 quadrilaterals.
58547 triangles.
53439 quadrilaterals.
Setting point connectivity.
58547 triangles.
53439 quadrilaterals.
58547 triangles.
53439 quadrilaterals.
Setting point connectivity.
Setting point connectivity.
Setting point connectivity.
Setting point connectivity.
Setting point connectivity.
Setting point connectivity.
Renumbering points (Reverse Cuthill McKee Ordering).
Recomputing point connectivity.
Renumbering points (Reverse Cuthill McKee Ordering).
Renumbering points (Reverse Cuthill McKee Ordering).
Renumbering points (Reverse Cuthill McKee Ordering).
Renumbering points (Reverse Cuthill McKee Ordering).
Recomputing point connectivity.
Renumbering points (Reverse Cuthill McKee Ordering).
Recomputing point connectivity.
Recomputing point connectivity.
Recomputing point connectivity.
Recomputing point connectivity.
Renumbering points (Reverse Cuthill McKee Ordering).
Recomputing point connectivity.
Setting element connectivity.
Setting element connectivity.
Setting element connectivity.
Setting element connectivity.
Setting element connectivity.
Setting element connectivity.
Setting element connectivity.
Checking the numerical grid orientation.
Checking the numerical grid orientation.
All volume elements are correctly orientend.
All surface elements are correctly orientend.
Identifying edges and vertices.
All volume elements are correctly orientend.
All surface elements are correctly orientend.
Identifying edges and vertices.
Setting the control volume structure.
Setting the control volume structure.
Checking the numerical grid orientation.
All volume elements are correctly orientend.
All surface elements are correctly orientend.
Identifying edges and vertices.
Checking the numerical grid orientation.
Checking the numerical grid orientation.
All volume elements are correctly orientend.
All surface elements are correctly orientend.
Identifying edges and vertices.
Setting the control volume structure.
All volume elements are correctly orientend.
All surface elements are correctly orientend.
Identifying edges and vertices.
Checking the numerical grid orientation.
Setting the control volume structure.
Area of the computational grid: 471199.
Searching for the closest normal neighbors to the surfaces.
Storing a mapping from global to local point index.
All volume elements are correctly orientend.
All surface elements are correctly orientend.
Identifying edges and vertices.
Setting the control volume structure.
Area of the computational grid: 471199.
Searching for the closest normal neighbors to the surfaces.
Storing a mapping from global to local point index.
Setting the control volume structure.
Compute the surface curvature.
Max K: 1170.36. Mean K: 8.52189. Standard deviation K: 78.5888.
Checking for periodicity.
Computing mesh quality statistics for the dual control volumes.
Checking the numerical grid orientation.
Compute the surface curvature.
Max K: 1170.36. Mean K: 8.52189. Standard deviation K: 78.5888.
Area of the computational grid: 471199.
Checking for periodicity.
Computing mesh quality statistics for the dual control volumes.
Searching for the closest normal neighbors to the surfaces.
Storing a mapping from global to local point index.
All volume elements are correctly orientend.
All surface elements are correctly orientend.
Identifying edges and vertices.
Setting the control volume structure.
Area of the computational grid: 471199.
Searching for the closest normal neighbors to the surfaces.
Storing a mapping from global to local point index.
Area of the computational grid: 471199.
Compute the surface curvature.
Max K: 1170.36. Mean K: 8.52189. Standard deviation K: 78.5888.
Searching for the closest normal neighbors to the surfaces.
Storing a mapping from global to local point index.
Checking for periodicity.
Computing mesh quality statistics for the dual control volumes.
Area of the computational grid: 471199.
Searching for the closest normal neighbors to the surfaces.
Storing a mapping from global to local point index.
Compute the surface curvature.
Max K: 1170.36. Mean K: 8.52189. Standard deviation K: 78.5888.
Compute the surface curvature.
Max K: 1170.36. Mean K: 8.52189. Standard deviation K: 78.5888.
Checking for periodicity.
Computing mesh quality statistics for the dual control volumes.
Checking for periodicity.
Computing mesh quality statistics for the dual control volumes.
Compute the surface curvature.
Max K: 1170.36. Mean K: 8.52189. Standard deviation K: 78.5888.
Checking for periodicity.
Computing mesh quality statistics for the dual control volumes.
+--------------------------------------------------------------+
|           Mesh Quality Metric|        Minimum|        Maximum|
+--------------------------------------------------------------+
|    Orthogonality Angle (deg.)|        78.3202|             90|
|     CV Face Area Aspect Ratio|        1.00125|          10910|
|           CV Sub-Volume Ratio|         1.0001|        5.21203|
+--------------------------------------------------------------+
Finding max control volume width.
Area of the computational grid: 471199.
Wetted area = 6.32542 m.
Area projection in the x-plane = 0.630114 m, y-plane = 2.96262 m.
Max. coordinate in the x-direction = 2.9339 m, y-direction = 0.165086 m.
Min. coordinate in the x-direction = 0 m, y-direction = -0.309055 m.
Computing wall distances.
Searching for the closest normal neighbors to the surfaces.
Storing a mapping from global to local point index.
+--------------------------------------------------------------+
|           Mesh Quality Metric|        Minimum|        Maximum|
+--------------------------------------------------------------+
|    Orthogonality Angle (deg.)|        78.3202|             90|
|     CV Face Area Aspect Ratio|        1.00125|          10910|
|           CV Sub-Volume Ratio|         1.0001|        5.21203|
+--------------------------------------------------------------+
Finding max control volume width.
Wetted area = 6.32542 m.
Area projection in the x-plane = 0.630114 m, y-plane = 2.96262 m.
Max. coordinate in the x-direction = 2.9339 m, y-direction = 0.165086 m.
Min. coordinate in the x-direction = 0 m, y-direction = -0.309055 m.
Computing wall distances.
Compute the surface curvature.
Max K: 1170.36. Mean K: 8.52189. Standard deviation K: 78.5888.
Checking for periodicity.
Computing mesh quality statistics for the dual control volumes.
+--------------------------------------------------------------+
|           Mesh Quality Metric|        Minimum|        Maximum|
+--------------------------------------------------------------+
|    Orthogonality Angle (deg.)|        78.3202|             90|
|     CV Face Area Aspect Ratio|        1.00125|          10910|
|           CV Sub-Volume Ratio|         1.0001|        5.21203|
+--------------------------------------------------------------+
Finding max control volume width.
Wetted area = 6.32542 m.
Area projection in the x-plane = 0.630114 m, y-plane = 2.96262 m.
Max. coordinate in the x-direction = 2.9339 m, y-direction = 0.165086 m.
Min. coordinate in the x-direction = 0 m, y-direction = -0.309055 m.
Computing wall distances.
+--------------------------------------------------------------+
|           Mesh Quality Metric|        Minimum|        Maximum|
+--------------------------------------------------------------+
|    Orthogonality Angle (deg.)|        78.3202|             90|
|     CV Face Area Aspect Ratio|        1.00125|          10910|
|           CV Sub-Volume Ratio|         1.0001|        5.21203|
+--------------------------------------------------------------+
Finding max control volume width.
+--------------------------------------------------------------+
|           Mesh Quality Metric|        Minimum|        Maximum|
+--------------------------------------------------------------+
|    Orthogonality Angle (deg.)|        78.3202|             90|
|     CV Face Area Aspect Ratio|        1.00125|          10910|
|           CV Sub-Volume Ratio|         1.0001|        5.21203|
+--------------------------------------------------------------+
Finding max control volume width.
Wetted area = 6.32542 m.
Area projection in the x-plane = 0.630114 m, y-plane = 2.96262 m.
Max. coordinate in the x-direction = 2.9339 m, y-direction = 0.165086 m.
Min. coordinate in the x-direction = 0 m, y-direction = -0.309055 m.
Computing wall distances.
+--------------------------------------------------------------+
|           Mesh Quality Metric|        Minimum|        Maximum|
+--------------------------------------------------------------+
|    Orthogonality Angle (deg.)|        78.3202|             90|
|     CV Face Area Aspect Ratio|        1.00125|          10910|
|           CV Sub-Volume Ratio|         1.0001|        5.21203|
+--------------------------------------------------------------+
Finding max control volume width.
Wetted area = 6.32542 m.
Area projection in the x-plane = 0.630114 m, y-plane = 2.96262 m.
Max. coordinate in the x-direction = 2.9339 m, y-direction = 0.165086 m.
Min. coordinate in the x-direction = 0 m, y-direction = -0.309055 m.
Computing wall distances.
Wetted area = 6.32542 m.
Area projection in the x-plane = 0.630114 m, y-plane = 2.96262 m.
Max. coordinate in the x-direction = 2.9339 m, y-direction = 0.165086 m.
Min. coordinate in the x-direction = 0 m, y-direction = -0.309055 m.
Computing wall distances.
+--------------------------------------------------------------+
|           Mesh Quality Metric|        Minimum|        Maximum|
+--------------------------------------------------------------+
|    Orthogonality Angle (deg.)|        78.3202|             90|
|     CV Face Area Aspect Ratio|        1.00125|          10910|
|           CV Sub-Volume Ratio|         1.0001|        5.21203|
+--------------------------------------------------------------+
Finding max control volume width.
Wetted area = 6.32542 m.
Area projection in the x-plane = 0.630114 m, y-plane = 2.96262 m.
Max. coordinate in the x-direction = 2.9339 m, y-direction = 0.165086 m.
Min. coordinate in the x-direction = 0 m, y-direction = -0.309055 m.
Computing wall distances.

-------------------- Solver Preprocessing ( Zone 0 ) --------------------
Viscous flow: Computing pressure using the ideal gas law
based on the free-stream temperature and a density computed
from the Reynolds number.
Force coefficients computed using free-stream values.

-- Models:
+------------------------------------------------------------------------------+
|          Viscosity Model|        Conductivity Model|              Fluid Model|
+------------------------------------------------------------------------------+
|               SUTHERLAND|          CONSTANT_PRANDTL|             STANDARD_AIR|
+------------------------------------------------------------------------------+
-- Fluid properties:
+------------------------------------------------------------------------------+
|                  Name|    Dim. value|    Ref. value|      Unit|Non-dim. value|
+------------------------------------------------------------------------------+
|        Ref. Viscosity|     1.716e-05|       416.437|   N.s/m^2|   4.12067e-08|
|      Sutherland Temp.|        273.15|       288.095|         K|      0.948125|
|     Sutherland Const.|         110.4|       288.095|         K|      0.383207|
+------------------------------------------------------------------------------+
|        Prandtl (Lam.)|             -|             -|         -|          0.72|
|       Prandtl (Turb.)|             -|             -|         -|           0.9|
+------------------------------------------------------------------------------+
|          Gas Constant|       287.058|       401.881|  N.m/kg.K|      0.714286|
|      Spec. Heat Ratio|             -|             -|         -|           1.4|
+------------------------------------------------------------------------------+
-- Initial and free-stream conditions:
+------------------------------------------------------------------------------+
|                  Name|    Dim. value|    Ref. value|      Unit|Non-dim. value|
+------------------------------------------------------------------------------+
|       Static Pressure|        101213|        141699|        Pa|      0.714286|
|               Density|       1.22386|       1.22386|    kg/m^3|             1|
|           Temperature|       288.095|       288.095|         K|             1|
|          Total Energy|        221331|        115780|   m^2/s^2|       1.91165|
|            Velocity-X|         169.2|       340.265|       m/s|      0.497261|
|            Velocity-Y|       17.7837|       340.265|       m/s|     0.0522642|
|    Velocity Magnitude|       170.132|       340.265|       m/s|           0.5|
+------------------------------------------------------------------------------+
|             Viscosity|   1.78903e-05|       416.437|   N.s/m^2|   4.29605e-08|
|          Conductivity|             -|        167358|   W/m^2.K|             -|
|     Turb. Kin. Energy|       108.544|        115780|   m^2/s^2|     0.0009375|
|     Spec. Dissipation|        742539|       340.265|       1/s|       2182.24|
+------------------------------------------------------------------------------+
|           Mach Number|             -|             -|         -|           0.5|
|       Reynolds Number|             -|             -|         -|   3.04932e+07|
+------------------------------------------------------------------------------+
Initialize Jacobian structure (Navier-Stokes). MG level: 0.

-------------------- Solver Preprocessing ( Zone 0 ) --------------------
Viscous flow: Computing pressure using the ideal gas law
based on the free-stream temperature and a density computed
from the Reynolds number.
Force coefficients computed using free-stream values.

-- Models:
+------------------------------------------------------------------------------+
|          Viscosity Model|        Conductivity Model|              Fluid Model|
+------------------------------------------------------------------------------+
|               SUTHERLAND|          CONSTANT_PRANDTL|             STANDARD_AIR|
+------------------------------------------------------------------------------+
-- Fluid properties:
+------------------------------------------------------------------------------+
|                  Name|    Dim. value|    Ref. value|      Unit|Non-dim. value|
+------------------------------------------------------------------------------+
|        Ref. Viscosity|     1.716e-05|       416.437|   N.s/m^2|   4.12067e-08|
|      Sutherland Temp.|        273.15|       288.095|         K|      0.948125|
|     Sutherland Const.|         110.4|       288.095|         K|      0.383207|
+------------------------------------------------------------------------------+
|        Prandtl (Lam.)|             -|             -|         -|          0.72|
|       Prandtl (Turb.)|             -|             -|         -|           0.9|
+------------------------------------------------------------------------------+
|          Gas Constant|       287.058|       401.881|  N.m/kg.K|      0.714286|
|      Spec. Heat Ratio|             -|             -|         -|           1.4|
+------------------------------------------------------------------------------+
-- Initial and free-stream conditions:
+------------------------------------------------------------------------------+
|                  Name|    Dim. value|    Ref. value|      Unit|Non-dim. value|
+------------------------------------------------------------------------------+
|       Static Pressure|        101213|        141699|        Pa|      0.714286|
|               Density|       1.22386|       1.22386|    kg/m^3|             1|
|           Temperature|       288.095|       288.095|         K|             1|
|          Total Energy|        221331|        115780|   m^2/s^2|       1.91165|
|            Velocity-X|         169.2|       340.265|       m/s|      0.497261|
|            Velocity-Y|       17.7837|       340.265|       m/s|     0.0522642|
|    Velocity Magnitude|       170.132|       340.265|       m/s|           0.5|
+------------------------------------------------------------------------------+
|             Viscosity|   1.78903e-05|       416.437|   N.s/m^2|   4.29605e-08|
|          Conductivity|             -|        167358|   W/m^2.K|             -|
|     Turb. Kin. Energy|       108.544|        115780|   m^2/s^2|     0.0009375|
|     Spec. Dissipation|        742539|       340.265|       1/s|       2182.24|
+------------------------------------------------------------------------------+
|           Mach Number|             -|             -|         -|           0.5|
|       Reynolds Number|             -|             -|         -|   3.04932e+07|
+------------------------------------------------------------------------------+
Initialize Jacobian structure (Navier-Stokes). MG level: 0.

-------------------- Solver Preprocessing ( Zone 0 ) --------------------
Viscous flow: Computing pressure using the ideal gas law
based on the free-stream temperature and a density computed
from the Reynolds number.
Force coefficients computed using free-stream values.

-- Models:
+------------------------------------------------------------------------------+
|          Viscosity Model|        Conductivity Model|              Fluid Model|
+------------------------------------------------------------------------------+
|               SUTHERLAND|          CONSTANT_PRANDTL|             STANDARD_AIR|
+------------------------------------------------------------------------------+
-- Fluid properties:
+------------------------------------------------------------------------------+
|                  Name|    Dim. value|    Ref. value|      Unit|Non-dim. value|
+------------------------------------------------------------------------------+
|        Ref. Viscosity|     1.716e-05|       416.437|   N.s/m^2|   4.12067e-08|
|      Sutherland Temp.|        273.15|       288.095|         K|      0.948125|
|     Sutherland Const.|         110.4|       288.095|         K|      0.383207|
+------------------------------------------------------------------------------+
|        Prandtl (Lam.)|             -|             -|         -|          0.72|
|       Prandtl (Turb.)|             -|             -|         -|           0.9|
+------------------------------------------------------------------------------+
|          Gas Constant|       287.058|       401.881|  N.m/kg.K|      0.714286|
|      Spec. Heat Ratio|             -|             -|         -|           1.4|
+------------------------------------------------------------------------------+
-- Initial and free-stream conditions:
+------------------------------------------------------------------------------+
|                  Name|    Dim. value|    Ref. value|      Unit|Non-dim. value|
+------------------------------------------------------------------------------+
|       Static Pressure|        101213|        141699|        Pa|      0.714286|
|               Density|       1.22386|       1.22386|    kg/m^3|             1|
|           Temperature|       288.095|       288.095|         K|             1|
|          Total Energy|        221331|        115780|   m^2/s^2|       1.91165|
|            Velocity-X|         169.2|       340.265|       m/s|      0.497261|
|            Velocity-Y|       17.7837|       340.265|       m/s|     0.0522642|
|    Velocity Magnitude|       170.132|       340.265|       m/s|           0.5|
+------------------------------------------------------------------------------+
|             Viscosity|   1.78903e-05|       416.437|   N.s/m^2|   4.29605e-08|
|          Conductivity|             -|        167358|   W/m^2.K|             -|
|     Turb. Kin. Energy|       108.544|        115780|   m^2/s^2|     0.0009375|
|     Spec. Dissipation|        742539|       340.265|       1/s|       2182.24|
+------------------------------------------------------------------------------+
|           Mach Number|             -|             -|         -|           0.5|
|       Reynolds Number|             -|             -|         -|   3.04932e+07|
+------------------------------------------------------------------------------+
Initialize Jacobian structure (Navier-Stokes). MG level: 0.

-------------------- Solver Preprocessing ( Zone 0 ) --------------------
Viscous flow: Computing pressure using the ideal gas law
based on the free-stream temperature and a density computed
from the Reynolds number.
Force coefficients computed using free-stream values.

-- Models:
+------------------------------------------------------------------------------+
|          Viscosity Model|        Conductivity Model|              Fluid Model|
+------------------------------------------------------------------------------+
|               SUTHERLAND|          CONSTANT_PRANDTL|             STANDARD_AIR|
+------------------------------------------------------------------------------+
-- Fluid properties:
+------------------------------------------------------------------------------+
|                  Name|    Dim. value|    Ref. value|      Unit|Non-dim. value|
+------------------------------------------------------------------------------+
|        Ref. Viscosity|     1.716e-05|       416.437|   N.s/m^2|   4.12067e-08|
|      Sutherland Temp.|        273.15|       288.095|         K|      0.948125|
|     Sutherland Const.|         110.4|       288.095|         K|      0.383207|
+------------------------------------------------------------------------------+
|        Prandtl (Lam.)|             -|             -|         -|          0.72|
|       Prandtl (Turb.)|             -|             -|         -|           0.9|
+------------------------------------------------------------------------------+
|          Gas Constant|       287.058|       401.881|  N.m/kg.K|      0.714286|
|      Spec. Heat Ratio|             -|             -|         -|           1.4|
+------------------------------------------------------------------------------+
-- Initial and free-stream conditions:
+------------------------------------------------------------------------------+
|                  Name|    Dim. value|    Ref. value|      Unit|Non-dim. value|
+------------------------------------------------------------------------------+
|       Static Pressure|        101213|        141699|        Pa|      0.714286|
|               Density|       1.22386|       1.22386|    kg/m^3|             1|
|           Temperature|       288.095|       288.095|         K|             1|
|          Total Energy|        221331|        115780|   m^2/s^2|       1.91165|
|            Velocity-X|         169.2|       340.265|       m/s|      0.497261|
|            Velocity-Y|       17.7837|       340.265|       m/s|     0.0522642|
|    Velocity Magnitude|       170.132|       340.265|       m/s|           0.5|
+------------------------------------------------------------------------------+
|             Viscosity|   1.78903e-05|       416.437|   N.s/m^2|   4.29605e-08|
|          Conductivity|             -|        167358|   W/m^2.K|             -|
|     Turb. Kin. Energy|       108.544|        115780|   m^2/s^2|     0.0009375|
|     Spec. Dissipation|        742539|       340.265|       1/s|       2182.24|
+------------------------------------------------------------------------------+
|           Mach Number|             -|             -|         -|           0.5|
|       Reynolds Number|             -|             -|         -|   3.04932e+07|
+------------------------------------------------------------------------------+
Initialize Jacobian structure (Navier-Stokes). MG level: 0.

-------------------- Solver Preprocessing ( Zone 0 ) --------------------
Viscous flow: Computing pressure using the ideal gas law
based on the free-stream temperature and a density computed
from the Reynolds number.
Force coefficients computed using free-stream values.

-- Models:
+------------------------------------------------------------------------------+
|          Viscosity Model|        Conductivity Model|              Fluid Model|
+------------------------------------------------------------------------------+
|               SUTHERLAND|          CONSTANT_PRANDTL|             STANDARD_AIR|
+------------------------------------------------------------------------------+
-- Fluid properties:
+------------------------------------------------------------------------------+
|                  Name|    Dim. value|    Ref. value|      Unit|Non-dim. value|
+------------------------------------------------------------------------------+
|        Ref. Viscosity|     1.716e-05|       416.437|   N.s/m^2|   4.12067e-08|
|      Sutherland Temp.|        273.15|       288.095|         K|      0.948125|
|     Sutherland Const.|         110.4|       288.095|         K|      0.383207|
+------------------------------------------------------------------------------+
|        Prandtl (Lam.)|             -|             -|         -|          0.72|
|       Prandtl (Turb.)|             -|             -|         -|           0.9|
+------------------------------------------------------------------------------+
|          Gas Constant|       287.058|       401.881|  N.m/kg.K|      0.714286|
|      Spec. Heat Ratio|             -|             -|         -|           1.4|
+------------------------------------------------------------------------------+
-- Initial and free-stream conditions:
+------------------------------------------------------------------------------+
|                  Name|    Dim. value|    Ref. value|      Unit|Non-dim. value|
+------------------------------------------------------------------------------+
|       Static Pressure|        101213|        141699|        Pa|      0.714286|
|               Density|       1.22386|       1.22386|    kg/m^3|             1|
|           Temperature|       288.095|       288.095|         K|             1|
|          Total Energy|        221331|        115780|   m^2/s^2|       1.91165|
|            Velocity-X|         169.2|       340.265|       m/s|      0.497261|
|            Velocity-Y|       17.7837|       340.265|       m/s|     0.0522642|
|    Velocity Magnitude|       170.132|       340.265|       m/s|           0.5|
+------------------------------------------------------------------------------+
|             Viscosity|   1.78903e-05|       416.437|   N.s/m^2|   4.29605e-08|
|          Conductivity|             -|        167358|   W/m^2.K|             -|
|     Turb. Kin. Energy|       108.544|        115780|   m^2/s^2|     0.0009375|
|     Spec. Dissipation|        742539|       340.265|       1/s|       2182.24|
+------------------------------------------------------------------------------+
|           Mach Number|             -|             -|         -|           0.5|
|       Reynolds Number|             -|             -|         -|   3.04932e+07|
+------------------------------------------------------------------------------+
Initialize Jacobian structure (Navier-Stokes). MG level: 0.

-------------------- Solver Preprocessing ( Zone 0 ) --------------------
Viscous flow: Computing pressure using the ideal gas law
based on the free-stream temperature and a density computed
from the Reynolds number.
Force coefficients computed using free-stream values.

-- Models:
+------------------------------------------------------------------------------+
|          Viscosity Model|        Conductivity Model|              Fluid Model|
+------------------------------------------------------------------------------+
|               SUTHERLAND|          CONSTANT_PRANDTL|             STANDARD_AIR|
+------------------------------------------------------------------------------+
-- Fluid properties:
+------------------------------------------------------------------------------+
|                  Name|    Dim. value|    Ref. value|      Unit|Non-dim. value|
+------------------------------------------------------------------------------+
|        Ref. Viscosity|     1.716e-05|       416.437|   N.s/m^2|   4.12067e-08|
|      Sutherland Temp.|        273.15|       288.095|         K|      0.948125|
|     Sutherland Const.|         110.4|       288.095|         K|      0.383207|
+------------------------------------------------------------------------------+
|        Prandtl (Lam.)|             -|             -|         -|          0.72|
|       Prandtl (Turb.)|             -|             -|         -|           0.9|
+------------------------------------------------------------------------------+
[...]
|SU2 binary restart                 |restart.dat                        |
|Paraview                           |vol_solution.vtu                   |
|Paraview surface                   |surface.vtu                        |
+-----------------------------------------------------------------------+
+--------------------------------------------------------------------------------------------------------------------+
|  Inner_Iter|    rms[Rho]|   rms[RhoU]|   rms[RhoV]|   rms[RhoE]|          CD|          CL|         CMz|   LinSolRes|
+--------------------------------------------------------------------------------------------------------------------+
|         625|   -5.230567|   -4.740746|   -4.931582|   -4.800430|    0.184973|    1.694827|    0.148266|   -0.629984|
|         650|   -5.165566|   -4.734917|   -4.884705|   -4.739867|    0.210759|    1.739891|    0.161359|   -0.977958|
|         675|   -5.290581|   -4.782505|   -4.974208|   -4.822955|    0.207481|    1.734001|    0.156259|   -0.594508|
|         699|   -5.397138|   -4.952433|   -5.113204|   -5.000916|    0.196457|    1.711746|    0.148685|   -0.672244|

----------------------------- Solver Exit -------------------------------

Maximum number of iterations reached (ITER = 700) before convergence.
+-----------------------------------------------------------------------+
|      Convergence Field     |     Value    |   Criterion  |  Converged |
+-----------------------------------------------------------------------+
|                  Cauchy[CL]|    0.00267676|       < 5e-07|          No|
+-----------------------------------------------------------------------+
-------------------------------------------------------------------------
  600|   -5.062162|   -4.626834|   -4.818146|   -4.616555|    0.170972|    1.642237|    0.134585|   -0.969442|
+-----------------------------------------------------------------------+
|        File Writing Summary       |              Filename             |
+-----------------------------------------------------------------------+
|SU2 binary restart                 |restart.dat                        |
|Paraview                           |vol_solution.vtu                   |
|Paraview surface                   |surface.vtu                        |
+-----------------------------------------------------------------------+
+--------------------------------------------------------------------------------------------------------------------+
|  Inner_Iter|    rms[Rho]|   rms[RhoU]|   rms[RhoV]|   rms[RhoE]|          CD|          CL|         CMz|   LinSolRes|
+--------------------------------------------------------------------------------------------------------------------+
|         625|   -5.230567|   -4.740746|   -4.931582|   -4.800430|    0.184973|    1.694827|    0.148266|   -0.629984|
|         650|   -5.165566|   -4.734917|   -4.884705|   -4.739867|    0.210759|    1.739891|    0.161359|   -0.977958|
|         675|   -5.290581|   -4.782505|   -4.974208|   -4.822955|    0.207481|    1.734001|    0.156259|   -0.594508|
|         699|   -5.397138|   -4.952433|   -5.113204|   -5.000916|    0.196457|    1.711746|    0.148685|   -0.672244|

----------------------------- Solver Exit -------------------------------

Maximum number of iterations reached (ITER = 700) before convergence.
+-----------------------------------------------------------------------+
|      Convergence Field     |     Value    |   Criterion  |  Converged |
+-----------------------------------------------------------------------+
|                  Cauchy[CL]|    0.00267676|       < 5e-07|          No|
+-----------------------------------------------------------------------+
-------------------------------------------------------------------------
  600|   -5.062162|   -4.626834|   -4.818146|   -4.616555|    0.170972|    1.642237|    0.134585|   -0.969442|
+-----------------------------------------------------------------------+
|        File Writing Summary       |              Filename             |
+-----------------------------------------------------------------------+
|SU2 binary restart                 |restart.dat                        |
|Paraview                           |vol_solution.vtu                   |
|Paraview surface                   |surface.vtu                        |
+-----------------------------------------------------------------------+
+--------------------------------------------------------------------------------------------------------------------+
|  Inner_Iter|    rms[Rho]|   rms[RhoU]|   rms[RhoV]|   rms[RhoE]|          CD|          CL|         CMz|   LinSolRes|
+--------------------------------------------------------------------------------------------------------------------+
|         625|   -5.230567|   -4.740746|   -4.931582|   -4.800430|    0.184973|    1.694827|    0.148266|   -0.629984|
|         650|   -5.165566|   -4.734917|   -4.884705|   -4.739867|    0.210759|    1.739891|    0.161359|   -0.977958|
|         675|   -5.290581|   -4.782505|   -4.974208|   -4.822955|    0.207481|    1.734001|    0.156259|   -0.594508|
|         699|   -5.397138|   -4.952433|   -5.113204|   -5.000916|    0.196457|    1.711746|    0.148685|   -0.672244|

----------------------------- Solver Exit -------------------------------

Maximum number of iterations reached (ITER = 700) before convergence.
+-----------------------------------------------------------------------+
|      Convergence Field     |     Value    |   Criterion  |  Converged |
+-----------------------------------------------------------------------+
|                  Cauchy[CL]|    0.00267676|       < 5e-07|          No|
+-----------------------------------------------------------------------+
-------------------------------------------------------------------------
  600|   -5.062162|   -4.626834|   -4.818146|   -4.616555|    0.170972|    1.642237|    0.134585|   -0.969442|
+-----------------------------------------------------------------------+
|        File Writing Summary       |              Filename             |
+-----------------------------------------------------------------------+
|SU2 binary restart                 |restart.dat                        |
|Paraview                           |vol_solution.vtu                   |
|Paraview surface                   |surface.vtu                        |
+-----------------------------------------------------------------------+
+--------------------------------------------------------------------------------------------------------------------+
|  Inner_Iter|    rms[Rho]|   rms[RhoU]|   rms[RhoV]|   rms[RhoE]|          CD|          CL|         CMz|   LinSolRes|
+--------------------------------------------------------------------------------------------------------------------+
|         625|   -5.230567|   -4.740746|   -4.931582|   -4.800430|    0.184973|    1.694827|    0.148266|   -0.629984|
|         650|   -5.165566|   -4.734917|   -4.884705|   -4.739867|    0.210759|    1.739891|    0.161359|   -0.977958|
|         675|   -5.290581|   -4.782505|   -4.974208|   -4.822955|    0.207481|    1.734001|    0.156259|   -0.594508|
|         699|   -5.397138|   -4.952433|   -5.113204|   -5.000916|    0.196457|    1.711746|    0.148685|   -0.672244|

----------------------------- Solver Exit -------------------------------

Maximum number of iterations reached (ITER = 700) before convergence.
+-----------------------------------------------------------------------+
|      Convergence Field     |     Value    |   Criterion  |  Converged |
+-----------------------------------------------------------------------+
|                  Cauchy[CL]|    0.00267676|       < 5e-07|          No|
+-----------------------------------------------------------------------+
-------------------------------------------------------------------------
  600|   -5.062162|   -4.626834|   -4.818146|   -4.616555|    0.170972|    1.642237|    0.134585|   -0.969442|
+-----------------------------------------------------------------------+
|        File Writing Summary       |              Filename             |
+-----------------------------------------------------------------------+
|SU2 binary restart                 |restart.dat                        |
|Paraview                           |vol_solution.vtu                   |
|Paraview surface                   |surface.vtu                        |
+-----------------------------------------------------------------------+
+--------------------------------------------------------------------------------------------------------------------+
|  Inner_Iter|    rms[Rho]|   rms[RhoU]|   rms[RhoV]|   rms[RhoE]|          CD|          CL|         CMz|   LinSolRes|
+--------------------------------------------------------------------------------------------------------------------+
|         625|   -5.230567|   -4.740746|   -4.931582|   -4.800430|    0.184973|    1.694827|    0.148266|   -0.629984|
|         650|   -5.165566|   -4.734917|   -4.884705|   -4.739867|    0.210759|    1.739891|    0.161359|   -0.977958|
|         675|   -5.290581|   -4.782505|   -4.974208|   -4.822955|    0.207481|    1.734001|    0.156259|   -0.594508|
|         699|   -5.397138|   -4.952433|   -5.113204|   -5.000916|    0.196457|    1.711746|    0.148685|   -0.672244|

----------------------------- Solver Exit -------------------------------

Maximum number of iterations reached (ITER = 700) before convergence.
+-----------------------------------------------------------------------+
|      Convergence Field     |     Value    |   Criterion  |  Converged |
+-----------------------------------------------------------------------+
|                  Cauchy[CL]|    0.00267676|       < 5e-07|          No|
+-----------------------------------------------------------------------+
-------------------------------------------------------------------------
  600|   -5.062162|   -4.626834|   -4.818146|   -4.616555|    0.170972|    1.642237|    0.134585|   -0.969442|
+-----------------------------------------------------------------------+
|        File Writing Summary       |              Filename             |
+-----------------------------------------------------------------------+
|SU2 binary restart                 |restart.dat                        |
|Paraview                           |vol_solution.vtu                   |
|Paraview surface                   |surface.vtu                        |
+-----------------------------------------------------------------------+
+--------------------------------------------------------------------------------------------------------------------+
|  Inner_Iter|    rms[Rho]|   rms[RhoU]|   rms[RhoV]|   rms[RhoE]|          CD|          CL|         CMz|   LinSolRes|
+--------------------------------------------------------------------------------------------------------------------+
|         625|   -5.230567|   -4.740746|   -4.931582|   -4.800430|    0.184973|    1.694827|    0.148266|   -0.629984|
|         650|   -5.165566|   -4.734917|   -4.884705|   -4.739867|    0.210759|    1.739891|    0.161359|   -0.977958|
|         675|   -5.290581|   -4.782505|   -4.974208|   -4.822955|    0.207481|    1.734001|    0.156259|   -0.594508|
|         699|   -5.397138|   -4.952433|   -5.113204|   -5.000916|    0.196457|    1.711746|    0.148685|   -0.672244|

----------------------------- Solver Exit -------------------------------

Maximum number of iterations reached (ITER = 700) before convergence.
+-----------------------------------------------------------------------+
|      Convergence Field     |     Value    |   Criterion  |  Converged |
+-----------------------------------------------------------------------+
|                  Cauchy[CL]|    0.00267676|       < 5e-07|          No|
+-----------------------------------------------------------------------+
-------------------------------------------------------------------------
+-----------------------------------------------------------------------+
|        File Writing Summary       |              Filename             |
+-----------------------------------------------------------------------+
|SU2 binary restart                 |restart.dat                        |
|Paraview                           |vol_solution.vtu                   |
|Paraview surface                   |surface.vtu                        |
+-----------------------------------------------------------------------+

------------------------- Solver Postprocessing -------------------------
Deleted CNumerics container.
Deleted CIntegration container.
Deleted CSolver container.
Deleted CIteration container.
Deleted CInterface container.
+-----------------------------------------------------------------------+
|        File Writing Summary       |              Filename             |
+-----------------------------------------------------------------------+
|SU2 binary restart                 |restart.dat                        |
|Paraview                           |vol_solution.vtu                   |
|Paraview surface                   |surface.vtu                        |
+-----------------------------------------------------------------------+

------------------------- Solver Postprocessing -------------------------
Deleted CNumerics container.
Deleted CIntegration container.
Deleted CSolver container.
Deleted CIteration container.
Deleted CInterface container.
Deleted CGeometry container.
Deleted CFreeFormDefBox class.
Deleted CSurfaceMovement class.
Deleted CVolumetricMovement class.
Deleted CConfig container.
Deleted nInst container.
Deleted COutput class.
-------------------------------------------------------------------------

------------------------- Exit Success (SU2_CFD) ------------------------

+-----------------------------------------------------------------------+
|        File Writing Summary       |              Filename             |
+-----------------------------------------------------------------------+
|SU2 binary restart                 |restart.dat                        |
|Paraview                           |vol_solution.vtu                   |
|Paraview surface                   |surface.vtu                        |
+-----------------------------------------------------------------------+

------------------------- Solver Postprocessing -------------------------
Deleted CNumerics container.
Deleted CIntegration container.
+-----------------------------------------------------------------------+
|        File Writing Summary       |              Filename             |
+-----------------------------------------------------------------------+
|SU2 binary restart                 |restart.dat                        |
|Paraview                           |vol_solution.vtu                   |
|Paraview surface                   |surface.vtu                        |
+-----------------------------------------------------------------------+

------------------------- Solver Postprocessing -------------------------
Deleted CNumerics container.
Deleted CGeometry container.
Deleted CFreeFormDefBox class.
Deleted CSurfaceMovement class.
Deleted CVolumetricMovement class.
Deleted CConfig container.
Deleted nInst container.
Deleted CIntegration container.
Deleted COutput class.
-------------------------------------------------------------------------

------------------------- Exit Success (SU2_CFD) ------------------------

+-----------------------------------------------------------------------+
|        File Writing Summary       |              Filename             |
+-----------------------------------------------------------------------+
|SU2 binary restart                 |restart.dat                        |
|Paraview                           |vol_solution.vtu                   |
|Paraview surface                   |surface.vtu                        |
+-----------------------------------------------------------------------+

------------------------- Solver Postprocessing -------------------------
+-----------------------------------------------------------------------+
|        File Writing Summary       |              Filename             |
+-----------------------------------------------------------------------+
|SU2 binary restart                 |restart.dat                        |
|Paraview                           |vol_solution.vtu                   |
|Paraview surface                   |surface.vtu                        |
+-----------------------------------------------------------------------+

------------------------- Solver Postprocessing -------------------------
Deleted CNumerics container.
Deleted CNumerics container.
Deleted CIntegration container.
Deleted CIntegration container.
Deleted CSolver container.
Deleted CIteration container.
Deleted CInterface container.
+-----------------------------------------------------------------------+
|        File Writing Summary       |              Filename             |
+-----------------------------------------------------------------------+
|SU2 binary restart                 |restart.dat                        |
|Paraview                           |vol_solution.vtu                   |
|Paraview surface                   |surface.vtu                        |
+-----------------------------------------------------------------------+

------------------------- Solver Postprocessing -------------------------
Deleted CNumerics container.
Deleted CSolver container.
Deleted CIteration container.
Deleted CInterface container.
Deleted CIntegration container.
Deleted CSolver container.
Deleted CIteration container.
Deleted CInterface container.
Deleted CSolver container.
Deleted CIteration container.
Deleted CInterface container.
Deleted CSolver container.
Deleted CIteration container.
Deleted CInterface container.
Deleted CGeometry container.
Deleted CFreeFormDefBox class.
Deleted CSurfaceMovement class.
Deleted CVolumetricMovement class.
Deleted CConfig container.
Deleted nInst container.
Deleted COutput class.
-------------------------------------------------------------------------

------------------------- Exit Success (SU2_CFD) ------------------------

Deleted CGeometry container.
Deleted CFreeFormDefBox class.
Deleted CSurfaceMovement class.
Deleted CVolumetricMovement class.
Deleted CGeometry container.
Deleted CFreeFormDefBox class.
Deleted CSurfaceMovement class.
Deleted CVolumetricMovement class.
Deleted CConfig container.
Deleted CConfig container.
Deleted nInst container.
Deleted nInst container.
Deleted COutput class.
-------------------------------------------------------------------------

------------------------- Exit Success (SU2_CFD) ------------------------

Deleted COutput class.
-------------------------------------------------------------------------

------------------------- Exit Success (SU2_CFD) ------------------------

Deleted CGeometry container.
Deleted CFreeFormDefBox class.
Deleted CSurfaceMovement class.
Deleted CVolumetricMovement class.
Deleted CConfig container.
Deleted nInst container.
Deleted COutput class.
-------------------------------------------------------------------------

------------------------- Exit Success (SU2_CFD) ------------------------

Deleted CGeometry container.
Deleted CFreeFormDefBox class.
Deleted CSurfaceMovement class.
Deleted CVolumetricMovement class.
Deleted CConfig container.
Deleted nInst container.
Deleted COutput class.
-------------------------------------------------------------------------

------------------------- Exit Success (SU2_CFD) ------------------------

