  
       XFOIL         Version 6.99
  
 Calculated polar for: Airfoil 31                                      
  
 1 1 Reynolds number fixed          Mach number fixed         
  
 xtrf =   0.300 (top)        0.300 (bottom)  
 Mach =   0.210     Re =    10.675 e 6     Ncrit =   9.000  9.000
  
   alpha    CL        CD       CDp       CM     Top_Xtr  Bot_Xtr  Top_Itr  Bot_Itr
  ------ -------- --------- --------- -------- -------- -------- -------- --------
   0.000   0.3337   0.00570   0.00039  -0.0888   0.3000   0.3000  49.4016 110.6225
   1.667   0.5289   0.00669   0.00045  -0.0906   0.1074   0.3000  62.6214 110.6225
   3.333   0.7238   0.00755   0.00025  -0.0919   0.0302   0.3000  69.0300 110.6225
   5.000   0.9174   0.00844  -0.00055  -0.0925   0.0128   0.3000  72.1021 110.6225
