WARNING: The current SST-1994m model is inconsistent with literature. We recommend using the SST-2003m model.
In SU2 v8 the 2003m model will become default, and the inconsistency will be fixed.

-------------------------------------------------------------------------
|    ___ _   _ ___                                                      |
|   / __| | | |_  )   Release 7.4.0 "Blackbird"                         |
|   \__ \ |_| |/ /                                                      |
|   |___/\___//___|   Suite (Computational Fluid Dynamics Code)         |
|                                                                       |
-------------------------------------------------------------------------
| SU2 Project Website: https://su2code.github.io                        |
|                                                                       |
| The SU2 Project is maintained by the SU2 Foundation                   |
| (http://su2foundation.org)                                            |
-------------------------------------------------------------------------
| Copyright 2012-2022, SU2 Contributors                                 |
|                                                                       |
| SU2 is free software; you can redistribute it and/or                  |
| modify it under the terms of the GNU Lesser General Public            |
| License as published by the Free Software Foundation; either          |
| version 2.1 of the License, or (at your option) any later version.    |
|                                                                       |
| SU2 is distributed in the hope that it will be useful,                |
| but WITHOUT ANY WARRANTY; without even the implied warranty of        |
| MERCHANTABILITY or FITNESS FOR A PARTICULAR PURPOSE. See the GNU      |
| Lesser General Public License for more details.                       |
|                                                                       |
| You should have received a copy of the GNU Lesser General Public      |
| License along with SU2. If not, see <http://www.gnu.org/licenses/>.   |
-------------------------------------------------------------------------
WARNING: The current SST-1994m model is inconsistent with literature. We recommend using the SST-2003m model.
In SU2 v8 the 2003m model will become default, and the inconsistency will be fixed.

Parsing config file for zone 0
WARNING: The current SST-1994m model is inconsistent with literature. We recommend using the SST-2003m model.
In SU2 v8 the 2003m model will become default, and the inconsistency will be fixed.

----------------- Physical Case Definition ( Zone 0 ) -------------------
Compressible RANS equations.
Turbulence model: Menter's k-omega SST-1994m with no production modification.
Hybrid RANS/LES: No Hybrid RANS/LES
Mach number: 0.2.
Angle of attack (AoA): 9 deg, and angle of sideslip (AoS): 0 deg.
Reynolds number: 1.22082e+07. Reference length 2.62.
Reading and writing binary SU2 native restart files.
Read flow solution from: solution_flow.
Non-Dimensional simulation (V=Mach, Rho=1.0, T=1.0 at the farfield).
The reference area is 2.62 m^2.
The semi-span will be computed using the max y(3D) value.
The reference length is 2.62 m.
Reference origin for moment evaluation is (0, 0, 0).
Surface(s) where the force coefficients are evaluated: wall.

Surface(s) plotted in the output file: wall.
Input mesh file name: su2meshEx.su2

--------------- Space Numerical Integration ( Zone 0 ) ------------------
Roe (with entropy fix = 1e-05) solver for the flow inviscid terms.
Standard Roe without low-dissipation function.
Second order integration in space, with slope limiter.
Van Albada slope-limiting method implemented by edges.
Scalar upwind solver for the turbulence model.
First order integration in space.
Average of gradients with correction (viscous flow terms).
Average of gradients with correction (viscous turbulence terms).
Gradient for upwind reconstruction: Green-Gauss.
Gradient for viscous and source terms: Green-Gauss.

--------------- Time Numerical Integration  ( Zone 0 ) ------------------
Local time stepping (steady state simulation).
Euler implicit method for the flow equations.
FGMRES is used for solving the linear system.
Using a ILU(0) preconditioning.
Convergence criteria of the linear solver: 0.2.
Max number of linear iterations: 4.
CFL adaptation. Factor down: 0.1, factor up: 1.2,
                lower limit: 25, upper limit: 1000,
                acceptable linear residual: 0.001.
Courant-Friedrichs-Lewy number:       25
Euler implicit time integration for the turbulence model.

------------------ Convergence Criteria  ( Zone 0 ) ---------------------
Maximum number of solver subiterations: 25000.
Begin convergence monitoring at iteration 10.
Residual minimum value: 1e-11.5.
Cauchy series min. value: 5e-07.
Number of Cauchy elements: 500.
Begin windowed time average at iteration 0.

-------------------- Output Information ( Zone 0 ) ----------------------
File writing frequency: 
+------------------------------------+
|                     File| Frequency|
+------------------------------------+
|                  RESTART|       100|
|                 PARAVIEW|       100|
|         SURFACE_PARAVIEW|       100|
+------------------------------------+
Writing the convergence history file every 1 inner iterations.
Writing the screen convergence history every 25 inner iterations.
The tabular file format is CSV (.csv).
Convergence history file name: history.
Forces breakdown file name: forces_breakdown.dat.
Surface file name: surface.
Volume file name: vol_solution.
Restart file name: restart.dat.

------------- Config File Boundary Information ( Zone 0 ) ---------------
+-----------------------------------------------------------------------+
|                        Marker Type|                        Marker Name|
+-----------------------------------------------------------------------+
|                          Far-field|                          far-field|
+-----------------------------------------------------------------------+
|                     Heat flux wall|                               wall|
+-----------------------------------------------------------------------+

-------------------- Output Preprocessing ( Zone 0 ) --------------------

WARNING: SURFACE_PRESSURE_DROP can only be computed for at least 2 surfaces (outlet, inlet, ...)

  Info: Ignoring the following screen output fields:
  RMS_NU_TILDE
Screen output fields: INNER_ITER, RMS_DENSITY, RMS_MOMENTUM-X, RMS_MOMENTUM-Y, RMS_ENERGY, DRAG, LIFT, MOMENT_Z, LINSOL_RESIDUAL
History output group(s): ITER, RMS_RES, AERO_COEFF
Convergence field(s): LIFT
Warning: No (valid) fields chosen for time convergence monitoring. Time convergence monitoring inactive.
Volume output fields: COORDINATES, SOLUTION, PRIMITIVE

------------------- Geometry Preprocessing ( Zone 0 ) -------------------
Two dimensional problem.
82001 grid points before partitioning.
110096 volume elements before partitioning.
2 surface markers.
76 boundary elements in index 0 (Marker = far-field).
723 boundary elements in index 1 (Marker = wall).
Executing the partitioning functions.
Building the graph adjacency structure.
Calling ParMETIS... graph partitioning complete (1791 edge cuts).
Distributing ParMETIS coloring.
Rebalancing vertices.
Rebalancing volume element connectivity.
Rebalancing markers and surface elements.
84501 vertices including ghost points. 
111887 interior elements including halo cells. 
58082 triangles.
53805 quadrilaterals.
Establishing MPI communication patterns.
Setting point connectivity.
Renumbering points (Reverse Cuthill McKee Ordering).
Recomputing point connectivity.
Setting element connectivity.
Checking the numerical grid orientation.
All volume elements are correctly orientend.
All surface elements are correctly orientend.
Identifying edges and vertices.
Setting the control volume structure.
Area of the computational grid: 98853.7.
Searching for the closest normal neighbors to the surfaces.
Storing a mapping from global to local point index.
Compute the surface curvature.
Max K: 1170.36. Mean K: 8.52212. Standard deviation K: 78.5888.
Checking for periodicity.
Computing mesh quality statistics for the dual control volumes.
+--------------------------------------------------------------+
|           Mesh Quality Metric|        Minimum|        Maximum|
+--------------------------------------------------------------+
|    Orthogonality Angle (deg.)|        60.5564|             90|
|     CV Face Area Aspect Ratio|        1.00119|        10426.8|
|           CV Sub-Volume Ratio|              1|        5.72924|
+--------------------------------------------------------------+
Finding max control volume width.
Communicating number of neighbors.
Wetted area = 6.32542 m.
Area projection in the x-plane = 0.630114 m, y-plane = 2.96262 m.
Max. coordinate in the x-direction = 2.9339 m, y-direction = 0.165086 m.
Min. coordinate in the x-direction = 0 m, y-direction = -0.309055 m.
Computing wall distances.

-------------------- Solver Preprocessing ( Zone 0 ) --------------------
Viscous flow: Computing pressure using the ideal gas law
based on the free-stream temperature and a density computed
from the Reynolds number.
Force coefficients computed using free-stream values.

-- Models:
+------------------------------------------------------------------------------+
|          Viscosity Model|        Conductivity Model|              Fluid Model|
+------------------------------------------------------------------------------+
|               SUTHERLAND|          CONSTANT_PRANDTL|             STANDARD_AIR|
+------------------------------------------------------------------------------+
-- Fluid properties:
+------------------------------------------------------------------------------+
|                  Name|    Dim. value|    Ref. value|      Unit|Non-dim. value|
+------------------------------------------------------------------------------+
|        Ref. Viscosity|     1.716e-05|       416.883|   N.s/m^2|   4.11626e-08|
|      Sutherland Temp.|        273.15|        288.16|         K|      0.947911|
|     Sutherland Const.|         110.4|        288.16|         K|       0.38312|
+------------------------------------------------------------------------------+
|        Prandtl (Lam.)|             -|             -|         -|          0.72|
|       Prandtl (Turb.)|             -|             -|         -|           0.9|
+------------------------------------------------------------------------------+
|          Gas Constant|       287.058|       401.881|  N.m/kg.K|      0.714286|
|      Spec. Heat Ratio|             -|             -|         -|           1.4|
+------------------------------------------------------------------------------+
-- Initial and free-stream conditions:
+------------------------------------------------------------------------------+
|                  Name|    Dim. value|    Ref. value|      Unit|Non-dim. value|
+------------------------------------------------------------------------------+
|       Static Pressure|        101333|        141867|        Pa|      0.714286|
|               Density|       1.22504|       1.22504|    kg/m^3|             1|
|           Temperature|        288.16|        288.16|         K|             1|
|          Total Energy|        209130|        115806|   m^2/s^2|       1.80586|
|            Velocity-X|       67.2226|       340.303|       m/s|      0.197538|
|            Velocity-Y|        10.647|       340.303|       m/s|     0.0312869|
|    Velocity Magnitude|       68.0606|       340.303|       m/s|           0.2|
+------------------------------------------------------------------------------+
|             Viscosity|   1.78935e-05|       416.883|   N.s/m^2|    4.2922e-08|
|          Conductivity|             -|        167537|   W/m^2.K|             -|
|     Turb. Kin. Energy|       17.3709|        115806|   m^2/s^2|       0.00015|
|     Spec. Dissipation|        118926|       340.303|       1/s|       349.471|
+------------------------------------------------------------------------------+
|           Mach Number|             -|             -|         -|           0.2|
|       Reynolds Number|             -|             -|         -|   1.22082e+07|
+------------------------------------------------------------------------------+
Initialize Jacobian structure (Navier-Stokes). MG level: 0.
Initialize Jacobian structure (SST model).

------------------- Numerics Preprocessing ( Zone 0 ) -------------------

----------------- Integration Preprocessing ( Zone 0 ) ------------------

------------------- Iteration Preprocessing ( Zone 0 ) ------------------
Euler/Navier-Stokes/RANS fluid iteration.

------------------------------ Begin Solver -----------------------------

Simulation Run using the Single-zone Driver
WARNING: SU2 was not compiled for an AVX-capable architecture.
+--------------------------------------------------------------------------------------------------------------------+
|  Inner_Iter|    rms[Rho]|   rms[RhoU]|   rms[RhoV]|   rms[RhoE]|          CD|          CL|         CMz|   LinSolRes|
+--------------------------------------------------------------------------------------------------------------------+
|           0|   -3.211763|   -3.776986|   -3.202128|   -2.809944|    0.096953|    2.686969|    1.138749|   -0.988294|
|          25|   -5.874159|   -5.078535|   -5.197299|   -5.419733|    0.102914|    2.751328|    1.167987|   -0.706560|
|          50|   -6.522527|   -5.508876|   -5.915804|   -5.958858|    0.073091|    2.816391|    1.172393|   -0.677658|
|          75|   -6.798519|   -5.871971|   -6.305776|   -6.277410|    0.051294|    2.800258|    1.161575|   -0.871086|
|         100|   -7.192378|   -6.171229|   -6.716111|   -6.661389|    0.056582|    2.773181|    1.153547|   -0.575932|
+-----------------------------------------------------------------------+
|        File Writing Summary       |              Filename             |
+-----------------------------------------------------------------------+
|SU2 binary restart                 |restart.dat                        |
|Paraview                           |vol_solution.vtu                   |
|Paraview surface                   |surface.vtu                        |
+-----------------------------------------------------------------------+
+--------------------------------------------------------------------------------------------------------------------+
|  Inner_Iter|    rms[Rho]|   rms[RhoU]|   rms[RhoV]|   rms[RhoE]|          CD|          CL|         CMz|   LinSolRes|
+--------------------------------------------------------------------------------------------------------------------+
|         125|   -7.308230|   -6.345976|   -6.975512|   -6.802571|    0.062903|    2.784375|    1.160328|   -0.679876|
|         150|   -7.443148|   -6.468464|   -7.162931|   -6.931862|    0.062188|    2.784257|    1.157990|   -0.657561|
|         175|   -7.492586|   -6.592874|   -7.317874|   -7.013107|    0.062425|    2.790611|    1.162052|   -0.520085|
|         200|   -7.566735|   -6.748137|   -7.332987|   -7.112391|    0.060863|    2.789053|    1.159071|   -0.609304|
+-----------------------------------------------------------------------+
|        File Writing Summary       |              Filename             |
+-----------------------------------------------------------------------+
|SU2 binary restart                 |restart.dat                        |
|Paraview                           |vol_solution.vtu                   |
|Paraview surface                   |surface.vtu                        |
+-----------------------------------------------------------------------+
+--------------------------------------------------------------------------------------------------------------------+
|  Inner_Iter|    rms[Rho]|   rms[RhoU]|   rms[RhoV]|   rms[RhoE]|          CD|          CL|         CMz|   LinSolRes|
+--------------------------------------------------------------------------------------------------------------------+
|         225|   -7.668614|   -6.960666|   -7.480378|   -7.243623|    0.060228|    2.787281|    1.158171|   -0.480638|
|         250|   -7.736101|   -7.142106|   -7.507817|   -7.312886|    0.059990|    2.787666|    1.157255|   -0.514428|
|         275|   -7.756355|   -7.193588|   -7.454403|   -7.351837|    0.058455|    2.781919|    1.153305|   -0.523558|
|         300|   -7.892104|   -7.276954|   -7.498122|   -7.500355|    0.058895|    2.781203|    1.153141|   -0.418520|
+-----------------------------------------------------------------------+
|        File Writing Summary       |              Filename             |
+-----------------------------------------------------------------------+
|SU2 binary restart                 |restart.dat                        |
|Paraview                           |vol_solution.vtu                   |
|Paraview surface                   |surface.vtu                        |
+-----------------------------------------------------------------------+
+--------------------------------------------------------------------------------------------------------------------+
|  Inner_Iter|    rms[Rho]|   rms[RhoU]|   rms[RhoV]|   rms[RhoE]|          CD|          CL|         CMz|   LinSolRes|
+--------------------------------------------------------------------------------------------------------------------+
|         325|   -8.034319|   -7.430687|   -7.660888|   -7.676478|    0.058522|    2.776849|    1.150510|   -0.404936|
|         350|   -8.171809|   -7.484277|   -7.842404|   -7.801788|    0.059621|    2.774870|    1.150190|   -0.408237|
|         375|   -8.193751|   -7.448494|   -7.868528|   -7.785703|    0.060060|    2.773349|    1.149523|   -0.466617|
|         400|   -8.240996|   -7.555071|   -7.961642|   -7.851209|    0.060663|    2.770838|    1.148245|   -0.451508|
+-----------------------------------------------------------------------+
|        File Writing Summary       |              Filename             |
+-----------------------------------------------------------------------+
|SU2 binary restart                 |restart.dat                        |
|Paraview                           |vol_solution.vtu                   |
|Paraview surface                   |surface.vtu                        |
+-----------------------------------------------------------------------+
+--------------------------------------------------------------------------------------------------------------------+
|  Inner_Iter|    rms[Rho]|   rms[RhoU]|   rms[RhoV]|   rms[RhoE]|          CD|          CL|         CMz|   LinSolRes|
+--------------------------------------------------------------------------------------------------------------------+
|         425|   -8.258162|   -7.600922|   -7.926854|   -7.898817|    0.061072|    2.769444|    1.147628|   -0.451948|
|         450|   -8.214570|   -7.576041|   -7.864696|   -7.861907|    0.061366|    2.767427|    1.146520|   -0.453388|
|         475|   -8.227327|   -7.573621|   -7.903748|   -7.881739|    0.061715|    2.765410|    1.145540|   -0.453058|
|         500|   -8.249280|   -7.570822|   -7.954207|   -7.893002|    0.062192|    2.763587|    1.144811|   -0.462258|
+-----------------------------------------------------------------------+
|        File Writing Summary       |              Filename             |
+-----------------------------------------------------------------------+
|SU2 binary restart                 |restart.dat                        |
|Paraview                           |vol_solution.vtu                   |
|Paraview surface                   |surface.vtu                        |
+-----------------------------------------------------------------------+
+--------------------------------------------------------------------------------------------------------------------+
|  Inner_Iter|    rms[Rho]|   rms[RhoU]|   rms[RhoV]|   rms[RhoE]|          CD|          CL|         CMz|   LinSolRes|
+--------------------------------------------------------------------------------------------------------------------+
|         525|   -8.275881|   -7.572167|   -8.037369|   -7.917150|    0.062629|    2.761836|    1.143992|   -0.471622|
|         550|   -8.297454|   -7.573251|   -8.083471|   -7.926536|    0.063114|    2.759767|    1.143135|   -0.470336|
|         575|   -8.291462|   -7.579304|   -8.059914|   -7.925764|    0.063603|    2.758317|    1.142443|   -0.469736|
|         600|   -8.281295|   -7.572037|   -8.023602|   -7.917927|    0.063954|    2.756277|    1.141500|   -0.472128|
+-----------------------------------------------------------------------+
|        File Writing Summary       |              Filename             |
+-----------------------------------------------------------------------+
|SU2 binary restart                 |restart.dat                        |
|Paraview                           |vol_solution.vtu                   |
|Paraview surface                   |surface.vtu                        |
+-----------------------------------------------------------------------+
+--------------------------------------------------------------------------------------------------------------------+
|  Inner_Iter|    rms[Rho]|   rms[RhoU]|   rms[RhoV]|   rms[RhoE]|          CD|          CL|         CMz|   LinSolRes|
+--------------------------------------------------------------------------------------------------------------------+
|         625|   -8.274783|   -7.563257|   -8.011708|   -7.911871|    0.064393|    2.754547|    1.140675|   -0.456188|
|         650|   -8.250197|   -7.555734|   -7.989806|   -7.885939|    0.064720|    2.752523|    1.139695|   -0.455550|
|         675|   -8.245292|   -7.547455|   -7.985319|   -7.881771|    0.065104|    2.750490|    1.138713|   -0.444209|
|         700|   -8.239831|   -7.539405|   -7.972367|   -7.876787|    0.065458|    2.748269|    1.137663|   -0.452492|
+-----------------------------------------------------------------------+
|        File Writing Summary       |              Filename             |
+-----------------------------------------------------------------------+
|SU2 binary restart                 |restart.dat                        |
|Paraview                           |vol_solution.vtu                   |
|Paraview surface                   |surface.vtu                        |
+-----------------------------------------------------------------------+
+--------------------------------------------------------------------------------------------------------------------+
|  Inner_Iter|    rms[Rho]|   rms[RhoU]|   rms[RhoV]|   rms[RhoE]|          CD|          CL|         CMz|   LinSolRes|
+--------------------------------------------------------------------------------------------------------------------+
|         725|   -8.231141|   -7.532787|   -7.959849|   -7.870804|    0.065855|    2.746073|    1.136603|   -0.434310|
|         750|   -8.218881|   -7.526620|   -7.955062|   -7.856792|    0.066213|    2.743703|    1.135491|   -0.432978|
|         775|   -8.170103|   -7.518888|   -7.941982|   -7.802182|    0.066615|    2.741306|    1.134364|   -0.406659|
|         800|   -8.179390|   -7.512413|   -7.928045|   -7.813858|    0.066993|    2.738921|    1.133230|   -0.417419|
+-----------------------------------------------------------------------+
|        File Writing Summary       |              Filename             |
+-----------------------------------------------------------------------+
|SU2 binary restart                 |restart.dat                        |
|Paraview                           |vol_solution.vtu                   |
|Paraview surface                   |surface.vtu                        |
+-----------------------------------------------------------------------+
+--------------------------------------------------------------------------------------------------------------------+
|  Inner_Iter|    rms[Rho]|   rms[RhoU]|   rms[RhoV]|   rms[RhoE]|          CD|          CL|         CMz|   LinSolRes|
+--------------------------------------------------------------------------------------------------------------------+
|         825|   -8.186771|   -7.506980|   -7.923585|   -7.824515|    0.067395|    2.736458|    1.132032|   -0.427488|
|         850|   -8.180607|   -7.500898|   -7.908715|   -7.819846|    0.067751|    2.733656|    1.130691|   -0.435674|
|         875|   -8.169603|   -7.492850|   -7.897023|   -7.809096|    0.068188|    2.730992|    1.129450|   -0.424313|
|         900|   -8.155481|   -7.486396|   -7.886489|   -7.794088|    0.068574|    2.728057|    1.128031|   -0.414098|
+-----------------------------------------------------------------------+
|        File Writing Summary       |              Filename             |
+-----------------------------------------------------------------------+
|SU2 binary restart                 |restart.dat                        |
|Paraview                           |vol_solution.vtu                   |
|Paraview surface                   |surface.vtu                        |
+-----------------------------------------------------------------------+
+--------------------------------------------------------------------------------------------------------------------+
|  Inner_Iter|    rms[Rho]|   rms[RhoU]|   rms[RhoV]|   rms[RhoE]|          CD|          CL|         CMz|   LinSolRes|
+--------------------------------------------------------------------------------------------------------------------+
|         925|   -8.157391|   -7.479574|   -7.874594|   -7.798294|    0.069011|    2.725135|    1.126670|   -0.405743|
|         950|   -8.142770|   -7.472574|   -7.865228|   -7.782853|    0.069434|    2.722105|    1.125234|   -0.411792|
|         975|   -8.136648|   -7.466221|   -7.857536|   -7.777159|    0.069880|    2.718962|    1.123754|   -0.410788|
|        1000|   -8.127380|   -7.459770|   -7.848852|   -7.768241|    0.070337|    2.715786|    1.122266|   -0.417951|
+-----------------------------------------------------------------------+
|        File Writing Summary       |              Filename             |
+-----------------------------------------------------------------------+
|SU2 binary restart                 |restart.dat                        |
|Paraview                           |vol_solution.vtu                   |
|Paraview surface                   |surface.vtu                        |
+-----------------------------------------------------------------------+
+--------------------------------------------------------------------------------------------------------------------+
|  Inner_Iter|    rms[Rho]|   rms[RhoU]|   rms[RhoV]|   rms[RhoE]|          CD|          CL|         CMz|   LinSolRes|
+--------------------------------------------------------------------------------------------------------------------+
|        1025|   -8.098881|   -7.451870|   -7.833358|   -7.736233|    0.070788|    2.712457|    1.120714|   -0.379572|
|        1050|   -8.090267|   -7.443774|   -7.822621|   -7.726803|    0.071261|    2.709238|    1.119218|   -0.394246|
|        1075|   -8.077297|   -7.436176|   -7.814458|   -7.713972|    0.071736|    2.705963|    1.117684|   -0.388307|
|        1100|   -8.070734|   -7.430082|   -7.805959|   -7.707558|    0.072203|    2.702528|    1.116067|   -0.386258|
+-----------------------------------------------------------------------+
|        File Writing Summary       |              Filename             |
+-----------------------------------------------------------------------+
|SU2 binary restart                 |restart.dat                        |
|Paraview                           |vol_solution.vtu                   |
|Paraview surface                   |surface.vtu                        |
+-----------------------------------------------------------------------+
+--------------------------------------------------------------------------------------------------------------------+
|  Inner_Iter|    rms[Rho]|   rms[RhoU]|   rms[RhoV]|   rms[RhoE]|          CD|          CL|         CMz|   LinSolRes|
+--------------------------------------------------------------------------------------------------------------------+
|        1125|   -8.061272|   -7.423067|   -7.798752|   -7.697277|    0.072713|    2.699105|    1.114493|   -0.391577|
|        1150|   -8.062892|   -7.416946|   -7.792777|   -7.701125|    0.073218|    2.695553|    1.112819|   -0.386126|
|        1175|   -8.067906|   -7.411366|   -7.786935|   -7.707916|    0.073745|    2.691917|    1.111119|   -0.401420|
|        1200|   -8.054225|   -7.404348|   -7.778735|   -7.693486|    0.074287|    2.688175|    1.109404|   -0.390894|
+-----------------------------------------------------------------------+
|        File Writing Summary       |              Filename             |
+-----------------------------------------------------------------------+
|SU2 binary restart                 |restart.dat                        |
|Paraview                           |vol_solution.vtu                   |
|Paraview surface                   |surface.vtu                        |
+-----------------------------------------------------------------------+
+--------------------------------------------------------------------------------------------------------------------+
|  Inner_Iter|    rms[Rho]|   rms[RhoU]|   rms[RhoV]|   rms[RhoE]|          CD|          CL|         CMz|   LinSolRes|
+--------------------------------------------------------------------------------------------------------------------+
|        1225|   -8.058832|   -7.398423|   -7.776140|   -7.700271|    0.074855|    2.684484|    1.107674|   -0.414438|
|        1250|   -8.057966|   -7.393185|   -7.772629|   -7.700230|    0.075433|    2.680570|    1.105849|   -0.413032|
|        1275|   -8.047560|   -7.387177|   -7.766320|   -7.688517|    0.076042|    2.676613|    1.104032|   -0.410603|
|        1300|   -8.035935|   -7.380349|   -7.762099|   -7.675982|    0.076675|    2.672668|    1.102206|   -0.411352|
+-----------------------------------------------------------------------+
|        File Writing Summary       |              Filename             |
+-----------------------------------------------------------------------+
|SU2 binary restart                 |restart.dat                        |
|Paraview                           |vol_solution.vtu                   |
|Paraview surface                   |surface.vtu                        |
+-----------------------------------------------------------------------+
+--------------------------------------------------------------------------------------------------------------------+
|  Inner_Iter|    rms[Rho]|   rms[RhoU]|   rms[RhoV]|   rms[RhoE]|          CD|          CL|         CMz|   LinSolRes|
+--------------------------------------------------------------------------------------------------------------------+
|        1325|   -8.035198|   -7.374448|   -7.757509|   -7.676097|    0.077311|    2.668636|    1.100332|   -0.413881|
|        1350|   -8.031697|   -7.367623|   -7.753187|   -7.673069|    0.077978|    2.664591|    1.098479|   -0.416522|
|        1375|   -8.024827|   -7.360665|   -7.748935|   -7.665727|    0.078661|    2.660502|    1.096587|   -0.416495|
|        1400|   -8.020765|   -7.354007|   -7.745758|   -7.661740|    0.079357|    2.656398|    1.094693|   -0.421963|
+-----------------------------------------------------------------------+
|        File Writing Summary       |              Filename             |
+-----------------------------------------------------------------------+
|SU2 binary restart                 |restart.dat                        |
|Paraview                           |vol_solution.vtu                   |
|Paraview surface                   |surface.vtu                        |
+-----------------------------------------------------------------------+
+--------------------------------------------------------------------------------------------------------------------+
|  Inner_Iter|    rms[Rho]|   rms[RhoU]|   rms[RhoV]|   rms[RhoE]|          CD|          CL|         CMz|   LinSolRes|
+--------------------------------------------------------------------------------------------------------------------+
|        1425|   -8.014613|   -7.346979|   -7.742455|   -7.655260|    0.080082|    2.652265|    1.092793|   -0.420419|
|        1450|   -8.007026|   -7.339571|   -7.738231|   -7.647011|    0.080828|    2.648084|    1.090860|   -0.426390|
|        1475|   -8.004430|   -7.332127|   -7.735077|   -7.645078|    0.081594|    2.643915|    1.088947|   -0.427721|
|        1500|   -7.997934|   -7.324403|   -7.732292|   -7.638164|    0.082386|    2.639703|    1.087003|   -0.429301|
+-----------------------------------------------------------------------+
|        File Writing Summary       |              Filename             |
+-----------------------------------------------------------------------+
|SU2 binary restart                 |restart.dat                        |
|Paraview                           |vol_solution.vtu                   |
|Paraview surface                   |surface.vtu                        |
+-----------------------------------------------------------------------+
+--------------------------------------------------------------------------------------------------------------------+
|  Inner_Iter|    rms[Rho]|   rms[RhoU]|   rms[RhoV]|   rms[RhoE]|          CD|          CL|         CMz|   LinSolRes|
+--------------------------------------------------------------------------------------------------------------------+
|        1525|   -7.987695|   -7.316331|   -7.728151|   -7.626781|    0.083212|    2.635467|    1.085055|   -0.426889|
|        1550|   -7.981588|   -7.307951|   -7.724455|   -7.620594|    0.084047|    2.631229|    1.083101|   -0.435111|
|        1575|   -7.977978|   -7.299250|   -7.721302|   -7.617542|    0.084922|    2.626967|    1.081137|   -0.437940|
|        1600|   -7.973358|   -7.290230|   -7.717375|   -7.613062|    0.085821|    2.622685|    1.079162|   -0.439487|
+-----------------------------------------------------------------------+
|        File Writing Summary       |              Filename             |
+-----------------------------------------------------------------------+
|SU2 binary restart                 |restart.dat                        |
|Paraview                           |vol_solution.vtu                   |
|Paraview surface                   |surface.vtu                        |
+-----------------------------------------------------------------------+
+--------------------------------------------------------------------------------------------------------------------+
|  Inner_Iter|    rms[Rho]|   rms[RhoU]|   rms[RhoV]|   rms[RhoE]|          CD|          CL|         CMz|   LinSolRes|
+--------------------------------------------------------------------------------------------------------------------+
|        1625|   -7.966719|   -7.280754|   -7.713581|   -7.606576|    0.086759|    2.618396|    1.077184|   -0.441541|
|        1650|   -7.958665|   -7.270779|   -7.709184|   -7.598364|    0.087724|    2.614068|    1.075179|   -0.443844|
|        1675|   -7.949077|   -7.260294|   -7.703460|   -7.588438|    0.088716|    2.609724|    1.073167|   -0.446305|
|        1700|   -7.941735|   -7.249617|   -7.698674|   -7.581334|    0.089747|    2.605372|    1.071149|   -0.450544|
+-----------------------------------------------------------------------+
|        File Writing Summary       |              Filename             |
+-----------------------------------------------------------------------+
|SU2 binary restart                 |restart.dat                        |
|Paraview                           |vol_solution.vtu                   |
|Paraview surface                   |surface.vtu                        |
+-----------------------------------------------------------------------+
+--------------------------------------------------------------------------------------------------------------------+
|  Inner_Iter|    rms[Rho]|   rms[RhoU]|   rms[RhoV]|   rms[RhoE]|          CD|          CL|         CMz|   LinSolRes|
+--------------------------------------------------------------------------------------------------------------------+
|        1725|   -7.931325|   -7.238442|   -7.693764|   -7.570666|    0.090825|    2.600992|    1.069111|   -0.455027|
|        1750|   -7.923150|   -7.226985|   -7.688599|   -7.562695|    0.091926|    2.596588|    1.067056|   -0.459482|
|        1775|   -7.912633|   -7.214951|   -7.681972|   -7.552244|    0.093093|    2.592177|    1.065000|   -0.460810|
|        1800|   -7.904983|   -7.202517|   -7.675568|   -7.545315|    0.094286|    2.587725|    1.062911|   -0.462041|
+-----------------------------------------------------------------------+
|        File Writing Summary       |              Filename             |
+-----------------------------------------------------------------------+
|SU2 binary restart                 |restart.dat                        |
|Paraview                           |vol_solution.vtu                   |
|Paraview surface                   |surface.vtu                        |
+-----------------------------------------------------------------------+
+--------------------------------------------------------------------------------------------------------------------+
|  Inner_Iter|    rms[Rho]|   rms[RhoU]|   rms[RhoV]|   rms[RhoE]|          CD|          CL|         CMz|   LinSolRes|
+--------------------------------------------------------------------------------------------------------------------+
|        1825|   -7.891574|   -7.189158|   -7.669632|   -7.531444|    0.095549|    2.583290|    1.060834|   -0.467252|
|        1850|   -7.879738|   -7.175435|   -7.661581|   -7.519740|    0.096830|    2.578787|    1.058700|   -0.470371|
|        1875|   -7.863899|   -7.161148|   -7.655288|   -7.503363|    0.098205|    2.574308|    1.056592|   -0.481345|
|        1900|   -7.854181|   -7.146105|   -7.646097|   -7.494528|    0.099613|    2.569766|    1.054430|   -0.485436|
+-----------------------------------------------------------------------+
|        File Writing Summary       |              Filename             |
+-----------------------------------------------------------------------+
|SU2 binary restart                 |restart.dat                        |
|Paraview                           |vol_solution.vtu                   |
|Paraview surface                   |surface.vtu                        |
+-----------------------------------------------------------------------+
+--------------------------------------------------------------------------------------------------------------------+
|  Inner_Iter|    rms[Rho]|   rms[RhoU]|   rms[RhoV]|   rms[RhoE]|          CD|          CL|         CMz|   LinSolRes|
+--------------------------------------------------------------------------------------------------------------------+
|        1925|   -7.841103|   -7.131013|   -7.639273|   -7.481400|    0.101101|    2.565236|    1.052274|   -0.487445|
|        1950|   -7.826052|   -7.114891|   -7.628960|   -7.466379|    0.102643|    2.560673|    1.050095|   -0.492757|
|        1975|   -7.806802|   -7.098670|   -7.621710|   -7.446055|    0.104268|    2.556145|    1.047913|   -0.497851|
|        2000|   -7.790852|   -7.081764|   -7.612428|   -7.430445|    0.105966|    2.551554|    1.045693|   -0.513320|
+-----------------------------------------------------------------------+
|        File Writing Summary       |              Filename             |
+-----------------------------------------------------------------------+
|SU2 binary restart                 |restart.dat                        |
|Paraview                           |vol_solution.vtu                   |
|Paraview surface                   |surface.vtu                        |
+-----------------------------------------------------------------------+
+--------------------------------------------------------------------------------------------------------------------+
|  Inner_Iter|    rms[Rho]|   rms[RhoU]|   rms[RhoV]|   rms[RhoE]|          CD|          CL|         CMz|   LinSolRes|
+--------------------------------------------------------------------------------------------------------------------+
|        2025|   -7.773883|   -7.064212|   -7.602758|   -7.413506|    0.107734|    2.546963|    1.043465|   -0.504307|
|        2050|   -7.752541|   -7.046403|   -7.593149|   -7.391586|    0.109587|    2.542404|    1.041232|   -0.504187|
|        2075|   -7.748006|   -7.027946|   -7.580417|   -7.390110|    0.111513|    2.537792|    1.038960|   -0.521079|
|        2100|   -7.720655|   -7.009458|   -7.567479|   -7.360658|    0.113529|    2.533257|    1.036712|   -0.531905|
+-----------------------------------------------------------------------+
|        File Writing Summary       |              Filename             |
+-----------------------------------------------------------------------+
|SU2 binary restart                 |restart.dat                        |
|Paraview                           |vol_solution.vtu                   |
|Paraview surface                   |surface.vtu                        |
+-----------------------------------------------------------------------+
+--------------------------------------------------------------------------------------------------------------------+
|  Inner_Iter|    rms[Rho]|   rms[RhoU]|   rms[RhoV]|   rms[RhoE]|          CD|          CL|         CMz|   LinSolRes|
+--------------------------------------------------------------------------------------------------------------------+
|        2125|   -7.710897|   -6.991462|   -7.556194|   -7.354193|    0.115608|    2.528767|    1.034445|   -0.501054|
|        2150|   -7.666658|   -6.972985|   -7.541729|   -7.305253|    0.117797|    2.524310|    1.032173|   -0.564812|
|        2175|   -7.651469|   -6.954083|   -7.527195|   -7.290663|    0.120067|    2.519682|    1.029867|   -0.560781|
|        2200|   -7.665358|   -6.934398|   -7.521405|   -7.312919|    0.122488|    2.515448|    1.027701|   -0.574370|
+-----------------------------------------------------------------------+
|        File Writing Summary       |              Filename             |
+-----------------------------------------------------------------------+
|SU2 binary restart                 |restart.dat                        |
|Paraview                           |vol_solution.vtu                   |
|Paraview surface                   |surface.vtu                        |
+-----------------------------------------------------------------------+
+--------------------------------------------------------------------------------------------------------------------+
|  Inner_Iter|    rms[Rho]|   rms[RhoU]|   rms[RhoV]|   rms[RhoE]|          CD|          CL|         CMz|   LinSolRes|
+--------------------------------------------------------------------------------------------------------------------+
|        2225|   -7.629014|   -6.915464|   -7.503903|   -7.271713|    0.124975|    2.511050|    1.025403|   -0.606487|
|        2250|   -7.524141|   -6.894579|   -7.484854|   -7.153212|    0.127633|    2.506923|    1.023315|   -0.673595|
|        2275|   -7.587243|   -6.876977|   -7.489303|   -7.230728|    0.130428|    2.503248|    1.021364|   -0.648950|
|        2300|   -7.552437|   -6.858833|   -7.475641|   -7.192756|    0.133328|    2.499569|    1.019399|   -0.666390|
+-----------------------------------------------------------------------+
|        File Writing Summary       |              Filename             |
+-----------------------------------------------------------------------+
|SU2 binary restart                 |restart.dat                        |
|Paraview                           |vol_solution.vtu                   |
|Paraview surface                   |surface.vtu                        |
+-----------------------------------------------------------------------+
+--------------------------------------------------------------------------------------------------------------------+
|  Inner_Iter|    rms[Rho]|   rms[RhoU]|   rms[RhoV]|   rms[RhoE]|          CD|          CL|         CMz|   LinSolRes|
+--------------------------------------------------------------------------------------------------------------------+
|        2325|   -7.559364|   -6.839697|   -7.467360|   -7.205802|    0.136417|    2.496292|    1.017790|   -0.658452|
|        2350|   -7.496840|   -6.820144|   -7.441536|   -7.133903|    0.139616|    2.493577|    1.016298|   -0.764681|
|        2375|   -7.490671|   -6.801789|   -7.425995|   -7.131452|    0.143001|    2.491358|    1.015071|   -0.756297|
|        2400|   -7.472647|   -6.783315|   -7.414306|   -7.113546|    0.146464|    2.489330|    1.014030|   -0.759349|
+-----------------------------------------------------------------------+
|        File Writing Summary       |              Filename             |
+-----------------------------------------------------------------------+
|SU2 binary restart                 |restart.dat                        |
|Paraview                           |vol_solution.vtu                   |
|Paraview surface                   |surface.vtu                        |
+-----------------------------------------------------------------------+
+--------------------------------------------------------------------------------------------------------------------+
|  Inner_Iter|    rms[Rho]|   rms[RhoU]|   rms[RhoV]|   rms[RhoE]|          CD|          CL|         CMz|   LinSolRes|
+--------------------------------------------------------------------------------------------------------------------+
|        2425|   -7.502736|   -6.765187|   -7.408554|   -7.155169|    0.150162|    2.488068|    1.013469|   -0.603115|
|        2450|   -7.451477|   -6.746424|   -7.378759|   -7.097465|    0.154002|    2.487794|    1.013243|   -0.774846|
|        2475|   -7.354868|   -6.728542|   -7.347197|   -6.985592|    0.157939|    2.487996|    1.013334|   -0.830736|
|        2500|   -7.425576|   -6.712100|   -7.336083|   -7.075436|    0.162064|    2.488832|    1.013954|   -0.687508|
+-----------------------------------------------------------------------+
|        File Writing Summary       |              Filename             |
+-----------------------------------------------------------------------+
|SU2 binary restart                 |restart.dat                        |
|Paraview                           |vol_solution.vtu                   |
|Paraview surface                   |surface.vtu                        |
+-----------------------------------------------------------------------+
+--------------------------------------------------------------------------------------------------------------------+
|  Inner_Iter|    rms[Rho]|   rms[RhoU]|   rms[RhoV]|   rms[RhoE]|          CD|          CL|         CMz|   LinSolRes|
+--------------------------------------------------------------------------------------------------------------------+
|        2525|   -7.371672|   -6.693439|   -7.308139|   -7.015869|    0.166341|    2.490748|    1.015026|   -0.768081|
|        2550|   -7.360254|   -6.677467|   -7.283342|   -7.006094|    0.170803|    2.493421|    1.016718|   -0.756665|
|        2575|   -7.333357|   -6.659765|   -7.250091|   -6.978599|    0.175367|    2.496910|    1.018869|   -0.737913|
|        2600|   -7.338668|   -6.643549|   -7.224781|   -6.992012|    0.180303|    2.501662|    1.022022|   -0.704722|
+-----------------------------------------------------------------------+
|        File Writing Summary       |              Filename             |
+-----------------------------------------------------------------------+
|SU2 binary restart                 |restart.dat                        |
|Paraview                           |vol_solution.vtu                   |
|Paraview surface                   |surface.vtu                        |
+-----------------------------------------------------------------------+
+--------------------------------------------------------------------------------------------------------------------+
|  Inner_Iter|    rms[Rho]|   rms[RhoU]|   rms[RhoV]|   rms[RhoE]|          CD|          CL|         CMz|   LinSolRes|
+--------------------------------------------------------------------------------------------------------------------+
|        2625|   -7.313833|   -6.628901|   -7.196604|   -6.966827|    0.185299|    2.507497|    1.025688|   -0.751382|
|        2650|   -7.288118|   -6.614312|   -7.170278|   -6.939205|    0.190537|    2.514249|    1.030222|   -0.710331|
|        2675|   -7.272213|   -6.598591|   -7.137400|   -6.924797|    0.196025|    2.522325|    1.035699|   -0.791272|
|        2700|   -7.257559|   -6.583284|   -7.106900|   -6.911523|    0.201795|    2.531487|    1.042090|   -0.743259|
+-----------------------------------------------------------------------+
|        File Writing Summary       |              Filename             |
+-----------------------------------------------------------------------+
|SU2 binary restart                 |restart.dat                        |
|Paraview                           |vol_solution.vtu                   |
|Paraview surface                   |surface.vtu                        |
+-----------------------------------------------------------------------+
+--------------------------------------------------------------------------------------------------------------------+
|  Inner_Iter|    rms[Rho]|   rms[RhoU]|   rms[RhoV]|   rms[RhoE]|          CD|          CL|         CMz|   LinSolRes|
+--------------------------------------------------------------------------------------------------------------------+
|        2725|   -7.246619|   -6.568782|   -7.072917|   -6.902117|    0.207822|    2.541766|    1.049419|   -0.720475|
|        2750|   -7.228900|   -6.555686|   -7.047808|   -6.884549|    0.213931|    2.552644|    1.057382|   -0.703125|
|        2775|   -7.214417|   -6.541106|   -7.029799|   -6.870683|    0.220206|    2.564111|    1.066093|   -0.798092|
|        2800|   -7.218575|   -6.528074|   -7.013632|   -6.880000|    0.226821|    2.576401|    1.075902|   -0.787283|
+-----------------------------------------------------------------------+
|        File Writing Summary       |              Filename             |
+-----------------------------------------------------------------------+
|SU2 binary restart                 |restart.dat                        |
|Paraview                           |vol_solution.vtu                   |
|Paraview surface                   |surface.vtu                        |
+-----------------------------------------------------------------------+
+--------------------------------------------------------------------------------------------------------------------+
|  Inner_Iter|    rms[Rho]|   rms[RhoU]|   rms[RhoV]|   rms[RhoE]|          CD|          CL|         CMz|   LinSolRes|
+--------------------------------------------------------------------------------------------------------------------+
|        2825|   -7.205723|   -6.514105|   -6.980820|   -6.868618|    0.234060|    2.589682|    1.087178|   -0.710010|
|        2850|   -7.186388|   -6.497884|   -6.941186|   -6.849238|    0.241568|    2.603528|    1.099413|   -0.790755|
|        2875|   -7.172563|   -6.480256|   -6.911752|   -6.836732|    0.249360|    2.617304|    1.112405|   -0.804314|
|        2900|   -7.171029|   -6.464357|   -6.898668|   -6.838356|    0.257449|    2.630907|    1.126428|   -0.775317|
+-----------------------------------------------------------------------+
|        File Writing Summary       |              Filename             |
+-----------------------------------------------------------------------+
|SU2 binary restart                 |restart.dat                        |
|Paraview                           |vol_solution.vtu                   |
|Paraview surface                   |surface.vtu                        |
+-----------------------------------------------------------------------+
+--------------------------------------------------------------------------------------------------------------------+
|  Inner_Iter|    rms[Rho]|   rms[RhoU]|   rms[RhoV]|   rms[RhoE]|          CD|          CL|         CMz|   LinSolRes|
+--------------------------------------------------------------------------------------------------------------------+
|        2925|   -7.152495|   -6.445035|   -6.878778|   -6.817360|    0.266156|    2.644109|    1.141779|   -0.812189|
|        2950|   -7.159123|   -6.421385|   -6.844502|   -6.832371|    0.275558|    2.656623|    1.158558|   -0.774776|
|        2975|   -7.128606|   -6.390734|   -6.801140|   -6.798609|    0.285409|    2.666972|    1.176143|   -0.803992|
|        3000|   -7.112799|   -6.350690|   -6.758181|   -6.786386|    0.295928|    2.673625|    1.194316|   -0.811044|
+-----------------------------------------------------------------------+
|        File Writing Summary       |              Filename             |
+-----------------------------------------------------------------------+
|SU2 binary restart                 |restart.dat                        |
|Paraview                           |vol_solution.vtu                   |
|Paraview surface                   |surface.vtu                        |
+-----------------------------------------------------------------------+
+--------------------------------------------------------------------------------------------------------------------+
|  Inner_Iter|    rms[Rho]|   rms[RhoU]|   rms[RhoV]|   rms[RhoE]|          CD|          CL|         CMz|   LinSolRes|
+--------------------------------------------------------------------------------------------------------------------+
|        3025|   -7.079836|   -6.301313|   -6.712309|   -6.754013|    0.307103|    2.674374|    1.212280|   -0.797842|
|        3050|   -7.023337|   -6.236524|   -6.645783|   -6.693444|    0.319115|    2.665839|    1.228845|   -0.785346|
|        3075|   -6.938918|   -6.155862|   -6.551642|   -6.603367|    0.331737|    2.641783|    1.240933|   -0.753970|
|        3100|   -6.834052|   -6.055097|   -6.423850|   -6.496144|    0.344954|    2.593108|    1.244129|   -0.758774|
+-----------------------------------------------------------------------+
|        File Writing Summary       |              Filename             |
+-----------------------------------------------------------------------+
|SU2 binary restart                 |restart.dat                        |
|Paraview                           |vol_solution.vtu                   |
|Paraview surface                   |surface.vtu                        |
+-----------------------------------------------------------------------+
+--------------------------------------------------------------------------------------------------------------------+
|  Inner_Iter|    rms[Rho]|   rms[RhoU]|   rms[RhoV]|   rms[RhoE]|          CD|          CL|         CMz|   LinSolRes|
+--------------------------------------------------------------------------------------------------------------------+
|        3125|   -6.651111|   -5.914703|   -6.239342|   -6.303583|    0.358650|    2.486230|    1.225217|   -0.636584|
|        3150|   -6.486723|   -5.757731|   -6.040358|   -6.144749|    0.365489|    2.298562|    1.166249|   -0.672963|
|        3175|   -6.332142|   -5.613966|   -5.858943|   -5.996275|    0.358192|    2.019144|    1.057513|   -0.685321|
|        3200|   -6.224832|   -5.530711|   -5.734327|   -5.893470|    0.341447|    1.683990|    0.920540|   -0.640852|
+-----------------------------------------------------------------------+
|        File Writing Summary       |              Filename             |
+-----------------------------------------------------------------------+
|SU2 binary restart                 |restart.dat                        |
|Paraview                           |vol_solution.vtu                   |
|Paraview surface                   |surface.vtu                        |
+-----------------------------------------------------------------------+
+--------------------------------------------------------------------------------------------------------------------+
|  Inner_Iter|    rms[Rho]|   rms[RhoU]|   rms[RhoV]|   rms[RhoE]|          CD|          CL|         CMz|   LinSolRes|
+--------------------------------------------------------------------------------------------------------------------+
|        3225|   -6.237640|   -5.541557|   -5.717404|   -5.927135|    0.331116|    1.397379|    0.812000|   -0.647466|
|        3250|   -6.314277|   -5.502151|   -5.786753|   -5.967612|    0.301252|    1.131044|    0.686751|   -0.642966|
|        3275|   -6.214411|   -5.398812|   -5.642429|   -5.854339|    0.254896|    0.872470|    0.547732|   -0.591647|
|        3300|   -6.022541|   -5.258355|   -5.428035|   -5.630830|    0.275820|    0.902429|    0.592369|   -0.709279|
+-----------------------------------------------------------------------+
|        File Writing Summary       |              Filename             |
+-----------------------------------------------------------------------+
|SU2 binary restart                 |restart.dat                        |
|Paraview                           |vol_solution.vtu                   |
|Paraview surface                   |surface.vtu                        |
+-----------------------------------------------------------------------+
+--------------------------------------------------------------------------------------------------------------------+
|  Inner_Iter|    rms[Rho]|   rms[RhoU]|   rms[RhoV]|   rms[RhoE]|          CD|          CL|         CMz|   LinSolRes|
+--------------------------------------------------------------------------------------------------------------------+
|        3325|   -5.936810|   -5.181551|   -5.338011|   -5.510534|    0.234767|    0.798472|    0.504337|   -0.808659|
|        3350|   -6.125743|   -5.194442|   -5.378584|   -5.724833|    0.240672|    0.773696|    0.503744|   -0.859538|
|        3375|   -6.134444|   -5.261262|   -5.429462|   -5.749201|    0.285825|    1.055559|    0.657837|   -0.669928|
|        3400|   -5.966636|   -5.257026|   -5.375018|   -5.587865|    0.242926|    0.933496|    0.543606|   -0.678394|
+-----------------------------------------------------------------------+
|        File Writing Summary       |              Filename             |
+-----------------------------------------------------------------------+
|SU2 binary restart                 |restart.dat                        |
|Paraview                           |vol_solution.vtu                   |
|Paraview surface                   |surface.vtu                        |
+-----------------------------------------------------------------------+
+--------------------------------------------------------------------------------------------------------------------+
|  Inner_Iter|    rms[Rho]|   rms[RhoU]|   rms[RhoV]|   rms[RhoE]|          CD|          CL|         CMz|   LinSolRes|
+--------------------------------------------------------------------------------------------------------------------+
|        3425|   -5.997109|   -5.159266|   -5.339637|   -5.579153|    0.267870|    1.066590|    0.624763|   -0.672317|
|        3450|   -6.222143|   -5.370037|   -5.523569|   -5.756653|    0.260421|    1.155612|    0.637683|   -0.716289|
|        3475|   -6.662080|   -5.832145|   -6.021603|   -6.204613|    0.273083|    1.251723|    0.685101|   -0.670656|
|        3500|   -6.801377|   -5.995518|   -6.361175|   -6.450528|    0.259396|    1.281088|    0.679606|   -0.571128|
+-----------------------------------------------------------------------+
|        File Writing Summary       |              Filename             |
+-----------------------------------------------------------------------+
|SU2 binary restart                 |restart.dat                        |
|Paraview                           |vol_solution.vtu                   |
|Paraview surface                   |surface.vtu                        |
+-----------------------------------------------------------------------+
+--------------------------------------------------------------------------------------------------------------------+
|  Inner_Iter|    rms[Rho]|   rms[RhoU]|   rms[RhoV]|   rms[RhoE]|          CD|          CL|         CMz|   LinSolRes|
+--------------------------------------------------------------------------------------------------------------------+
|        3525|   -6.815464|   -6.098359|   -6.389657|   -6.498363|    0.267011|    1.334045|    0.701025|   -0.671320|
|        3550|   -6.942158|   -6.148296|   -6.544305|   -6.585781|    0.262928|    1.390281|    0.720621|   -0.629225|
|        3575|   -6.951503|   -6.220254|   -6.568410|   -6.622587|    0.262516|    1.410058|    0.723452|   -0.641414|
|        3600|   -7.082451|   -6.311385|   -6.752748|   -6.743890|    0.262864|    1.452465|    0.739724|   -0.601151|
+-----------------------------------------------------------------------+
|        File Writing Summary       |              Filename             |
+-----------------------------------------------------------------------+
|SU2 binary restart                 |restart.dat                        |
|Paraview                           |vol_solution.vtu                   |
|Paraview surface                   |surface.vtu                        |
+-----------------------------------------------------------------------+
+--------------------------------------------------------------------------------------------------------------------+
|  Inner_Iter|    rms[Rho]|   rms[RhoU]|   rms[RhoV]|   rms[RhoE]|          CD|          CL|         CMz|   LinSolRes|
+--------------------------------------------------------------------------------------------------------------------+
|        3625|   -7.181249|   -6.400380|   -6.885431|   -6.863788|    0.262491|    1.473918|    0.747353|   -0.649239|
|        3650|   -7.150399|   -6.450837|   -6.743770|   -6.821461|    0.262563|    1.493437|    0.752052|   -0.755975|
|        3675|   -7.285491|   -6.461873|   -6.813682|   -6.925809|    0.263374|    1.511787|    0.761504|   -0.701382|
|        3700|   -7.241579|   -6.498766|   -6.769632|   -6.874607|    0.266444|    1.537091|    0.773776|   -0.595012|
+-----------------------------------------------------------------------+
|        File Writing Summary       |              Filename             |
+-----------------------------------------------------------------------+
|SU2 binary restart                 |restart.dat                        |
|Paraview                           |vol_solution.vtu                   |
|Paraview surface                   |surface.vtu                        |
+-----------------------------------------------------------------------+
+--------------------------------------------------------------------------------------------------------------------+
|  Inner_Iter|    rms[Rho]|   rms[RhoU]|   rms[RhoV]|   rms[RhoE]|          CD|          CL|         CMz|   LinSolRes|
+--------------------------------------------------------------------------------------------------------------------+
|        3725|   -7.227948|   -6.528076|   -6.730916|   -6.886200|    0.264635|    1.539670|    0.771781|   -0.705223|
|        3750|   -7.311035|   -6.596171|   -6.914548|   -6.928551|    0.268763|    1.561376|    0.786830|   -0.733322|
|        3775|   -7.449258|   -6.704872|   -6.968007|   -7.123474|    0.269113|    1.568380|    0.789662|   -0.630773|
|        3800|   -7.412203|   -6.716840|   -6.973562|   -7.079031|    0.271174|    1.571125|    0.794249|   -0.672260|
+-----------------------------------------------------------------------+
|        File Writing Summary       |              Filename             |
+-----------------------------------------------------------------------+
|SU2 binary restart                 |restart.dat                        |
|Paraview                           |vol_solution.vtu                   |
|Paraview surface                   |surface.vtu                        |
+-----------------------------------------------------------------------+
+--------------------------------------------------------------------------------------------------------------------+
|  Inner_Iter|    rms[Rho]|   rms[RhoU]|   rms[RhoV]|   rms[RhoE]|          CD|          CL|         CMz|   LinSolRes|
+--------------------------------------------------------------------------------------------------------------------+
|        3825|   -7.489877|   -6.702105|   -7.005671|   -7.121870|    0.272253|    1.573663|    0.798232|   -0.554863|
|        3850|   -7.376412|   -6.579452|   -6.879720|   -7.015215|    0.270480|    1.554537|    0.789143|   -0.561022|
|        3875|   -7.285279|   -6.543053|   -6.743454|   -6.911922|    0.270800|    1.542510|    0.786675|   -0.777440|
|        3900|   -7.294048|   -6.572839|   -6.837988|   -6.984553|    0.268072|    1.520330|    0.776561|   -0.723317|
+-----------------------------------------------------------------------+
|        File Writing Summary       |              Filename             |
+-----------------------------------------------------------------------+
|SU2 binary restart                 |restart.dat                        |
|Paraview                           |vol_solution.vtu                   |
|Paraview surface                   |surface.vtu                        |
+-----------------------------------------------------------------------+
+--------------------------------------------------------------------------------------------------------------------+
|  Inner_Iter|    rms[Rho]|   rms[RhoU]|   rms[RhoV]|   rms[RhoE]|          CD|          CL|         CMz|   LinSolRes|
+--------------------------------------------------------------------------------------------------------------------+
|        3925|   -7.322981|   -6.581534|   -6.842785|   -7.003443|    0.267139|    1.494521|    0.766424|   -0.583694|
|        3950|   -7.334602|   -6.642088|   -6.872662|   -7.015982|    0.268028|    1.482051|    0.764540|   -0.816767|
|        3975|   -7.449894|   -6.613734|   -7.001672|   -7.075970|    0.266328|    1.459494|    0.754618|   -0.564776|
|        4000|   -7.440163|   -6.696101|   -7.045761|   -7.108505|    0.266277|    1.442544|    0.748691|   -0.600263|
+-----------------------------------------------------------------------+
|        File Writing Summary       |              Filename             |
+-----------------------------------------------------------------------+
|SU2 binary restart                 |restart.dat                        |
|Paraview                           |vol_solution.vtu                   |
|Paraview surface                   |surface.vtu                        |
+-----------------------------------------------------------------------+
+--------------------------------------------------------------------------------------------------------------------+
|  Inner_Iter|    rms[Rho]|   rms[RhoU]|   rms[RhoV]|   rms[RhoE]|          CD|          CL|         CMz|   LinSolRes|
+--------------------------------------------------------------------------------------------------------------------+
|        4025|   -7.424224|   -6.723662|   -6.995253|   -7.099926|    0.266235|    1.433006|    0.746149|   -0.535389|
|        4050|   -7.566501|   -6.775651|   -7.170238|   -7.207848|    0.264632|    1.417313|    0.738402|   -0.659723|
|        4075|   -7.541980|   -6.827762|   -7.162303|   -7.198265|    0.264262|    1.409431|    0.735504|   -0.436814|
|        4100|   -7.487667|   -6.860108|   -7.140688|   -7.132361|    0.263377|    1.403613|    0.732799|   -0.667256|
+-----------------------------------------------------------------------+
|        File Writing Summary       |              Filename             |
+-----------------------------------------------------------------------+
|SU2 binary restart                 |restart.dat                        |
|Paraview                           |vol_solution.vtu                   |
|Paraview surface                   |surface.vtu                        |
+-----------------------------------------------------------------------+
+--------------------------------------------------------------------------------------------------------------------+
|  Inner_Iter|    rms[Rho]|   rms[RhoU]|   rms[RhoV]|   rms[RhoE]|          CD|          CL|         CMz|   LinSolRes|
+--------------------------------------------------------------------------------------------------------------------+
|        4125|   -7.605302|   -6.897956|   -7.252757|   -7.230609|    0.261924|    1.396127|    0.728067|   -0.629298|
|        4150|   -7.682204|   -6.945413|   -7.294815|   -7.357620|    0.261487|    1.394872|    0.727393|   -0.585518|
|        4175|   -7.652879|   -6.928843|   -7.254008|   -7.310216|    0.260893|    1.396207|    0.727345|   -0.588084|
|        4200|   -7.622547|   -6.990217|   -7.231538|   -7.238978|    0.259769|    1.396217|    0.725688|   -0.802842|
+-----------------------------------------------------------------------+
|        File Writing Summary       |              Filename             |
+-----------------------------------------------------------------------+
|SU2 binary restart                 |restart.dat                        |
|Paraview                           |vol_solution.vtu                   |
|Paraview surface                   |surface.vtu                        |
+-----------------------------------------------------------------------+
+--------------------------------------------------------------------------------------------------------------------+
|  Inner_Iter|    rms[Rho]|   rms[RhoU]|   rms[RhoV]|   rms[RhoE]|          CD|          CL|         CMz|   LinSolRes|
+--------------------------------------------------------------------------------------------------------------------+
|        4225|   -7.761590|   -7.019559|   -7.385342|   -7.423011|    0.259527|    1.401286|    0.727540|   -0.479904|
|        4250|   -7.671848|   -6.979246|   -7.330717|   -7.311039|    0.259024|    1.407297|    0.729230|   -0.375586|
|        4275|   -7.716489|   -7.015427|   -7.278586|   -7.376082|    0.258036|    1.411467|    0.729390|   -0.526876|
|        4300|   -7.728754|   -7.003706|   -7.413987|   -7.376858|    0.257664|    1.418683|    0.731925|   -0.521409|
+-----------------------------------------------------------------------+
|        File Writing Summary       |              Filename             |
+-----------------------------------------------------------------------+
|SU2 binary restart                 |restart.dat                        |
|Paraview                           |vol_solution.vtu                   |
|Paraview surface                   |surface.vtu                        |
+-----------------------------------------------------------------------+
+--------------------------------------------------------------------------------------------------------------------+
|  Inner_Iter|    rms[Rho]|   rms[RhoU]|   rms[RhoV]|   rms[RhoE]|          CD|          CL|         CMz|   LinSolRes|
+--------------------------------------------------------------------------------------------------------------------+
|        4325|   -7.683878|   -7.004917|   -7.416394|   -7.325664|    0.256926|    1.425117|    0.733505|   -0.374003|
|        4350|   -7.698047|   -7.026105|   -7.381353|   -7.347077|    0.255860|    1.429555|    0.733841|   -0.516703|
|        4375|   -7.755101|   -7.022151|   -7.503685|   -7.396065|    0.255292|    1.436112|    0.735988|   -0.455635|
|        4400|   -7.737398|   -7.027369|   -7.482853|   -7.380164|    0.254574|    1.441765|    0.737405|   -0.482058|
+-----------------------------------------------------------------------+
|        File Writing Summary       |              Filename             |
+-----------------------------------------------------------------------+
|SU2 binary restart                 |restart.dat                        |
|Paraview                           |vol_solution.vtu                   |
|Paraview surface                   |surface.vtu                        |
+-----------------------------------------------------------------------+
+--------------------------------------------------------------------------------------------------------------------+
|  Inner_Iter|    rms[Rho]|   rms[RhoU]|   rms[RhoV]|   rms[RhoE]|          CD|          CL|         CMz|   LinSolRes|
+--------------------------------------------------------------------------------------------------------------------+
|        4425|   -7.756284|   -7.039276|   -7.424784|   -7.408437|    0.253717|    1.446343|    0.738165|   -0.600675|
|        4450|   -7.772770|   -7.048474|   -7.523785|   -7.415080|    0.253157|    1.452150|    0.740062|   -0.428958|
|        4475|   -7.804972|   -7.067764|   -7.551532|   -7.453076|    0.252484|    1.457102|    0.741364|   -0.354971|
|        4500|   -7.798851|   -7.087264|   -7.521195|   -7.451499|    0.251839|    1.461544|    0.742450|   -0.441192|
+-----------------------------------------------------------------------+
|        File Writing Summary       |              Filename             |
+-----------------------------------------------------------------------+
|SU2 binary restart                 |restart.dat                        |
|Paraview                           |vol_solution.vtu                   |
|Paraview surface                   |surface.vtu                        |
+-----------------------------------------------------------------------+
+--------------------------------------------------------------------------------------------------------------------+
|  Inner_Iter|    rms[Rho]|   rms[RhoU]|   rms[RhoV]|   rms[RhoE]|          CD|          CL|         CMz|   LinSolRes|
+--------------------------------------------------------------------------------------------------------------------+
|        4525|   -7.812948|   -7.101386|   -7.590588|   -7.453290|    0.251285|    1.466324|    0.743967|   -0.452529|
|        4550|   -7.791647|   -7.134600|   -7.621846|   -7.420272|    0.250521|    1.469898|    0.744698|   -0.572836|
|        4575|   -7.904593|   -7.174629|   -7.673829|   -7.545501|    0.249767|    1.472724|    0.745124|   -0.341894|
|        4600|   -7.905585|   -7.194947|   -7.722406|   -7.527394|    0.249124|    1.475900|    0.745940|   -0.349838|
+-----------------------------------------------------------------------+
|        File Writing Summary       |              Filename             |
+-----------------------------------------------------------------------+
|SU2 binary restart                 |restart.dat                        |
|Paraview                           |vol_solution.vtu                   |
|Paraview surface                   |surface.vtu                        |
+-----------------------------------------------------------------------+
+--------------------------------------------------------------------------------------------------------------------+
|  Inner_Iter|    rms[Rho]|   rms[RhoU]|   rms[RhoV]|   rms[RhoE]|          CD|          CL|         CMz|   LinSolRes|
+--------------------------------------------------------------------------------------------------------------------+
|        4625|   -7.882643|   -7.232390|   -7.744941|   -7.498396|    0.248257|    1.477971|    0.746010|   -0.349158|
|        4650|   -7.939100|   -7.266211|   -7.756828|   -7.556300|    0.247401|    1.479643|    0.745919|   -0.368480|
|        4675|   -7.950799|   -7.271116|   -7.783410|   -7.560671|    0.246817|    1.482106|    0.746557|   -0.347312|
|        4700|   -7.914282|   -7.267979|   -7.720549|   -7.527042|    0.246116|    1.484134|    0.746794|   -0.346022|
+-----------------------------------------------------------------------+
|        File Writing Summary       |              Filename             |
+-----------------------------------------------------------------------+
|SU2 binary restart                 |restart.dat                        |
|Paraview                           |vol_solution.vtu                   |
|Paraview surface                   |surface.vtu                        |
+-----------------------------------------------------------------------+
+--------------------------------------------------------------------------------------------------------------------+
|  Inner_Iter|    rms[Rho]|   rms[RhoU]|   rms[RhoV]|   rms[RhoE]|          CD|          CL|         CMz|   LinSolRes|
+--------------------------------------------------------------------------------------------------------------------+
|        4725|   -7.944927|   -7.291382|   -7.704972|   -7.563069|    0.245334|    1.485666|    0.746701|   -0.360642|
|        4750|   -7.980259|   -7.305128|   -7.818856|   -7.595229|    0.244688|    1.487788|    0.747099|   -0.341114|
|        4775|   -7.958974|   -7.315374|   -7.832050|   -7.572707|    0.243950|    1.489600|    0.747192|   -0.326039|
|        4800|   -7.993961|   -7.328081|   -7.821225|   -7.612966|    0.243128|    1.491005|    0.746997|   -0.337387|
+-----------------------------------------------------------------------+
|        File Writing Summary       |              Filename             |
+-----------------------------------------------------------------------+
|SU2 binary restart                 |restart.dat                        |
|Paraview                           |vol_solution.vtu                   |
|Paraview surface                   |surface.vtu                        |
+-----------------------------------------------------------------------+
+--------------------------------------------------------------------------------------------------------------------+
|  Inner_Iter|    rms[Rho]|   rms[RhoU]|   rms[RhoV]|   rms[RhoE]|          CD|          CL|         CMz|   LinSolRes|
+--------------------------------------------------------------------------------------------------------------------+
|        4825|   -8.008956|   -7.332622|   -7.865408|   -7.623951|    0.242340|    1.492753|    0.747063|   -0.335813|
|        4850|   -8.001527|   -7.333639|   -7.861839|   -7.616294|    0.241511|    1.494320|    0.746964|   -0.359333|
|        4875|   -7.981836|   -7.319603|   -7.830022|   -7.599417|    0.240760|    1.496121|    0.747014|   -0.355511|
|        4900|   -7.960246|   -7.295856|   -7.783370|   -7.579351|    0.240046|    1.498380|    0.747348|   -0.355583|
+-----------------------------------------------------------------------+
|        File Writing Summary       |              Filename             |
+-----------------------------------------------------------------------+
|SU2 binary restart                 |restart.dat                        |
|Paraview                           |vol_solution.vtu                   |
|Paraview surface                   |surface.vtu                        |
+-----------------------------------------------------------------------+
+--------------------------------------------------------------------------------------------------------------------+
|  Inner_Iter|    rms[Rho]|   rms[RhoU]|   rms[RhoV]|   rms[RhoE]|          CD|          CL|         CMz|   LinSolRes|
+--------------------------------------------------------------------------------------------------------------------+
|        4925|   -7.936116|   -7.284932|   -7.747941|   -7.555999|    0.239303|    1.500537|    0.747543|   -0.341933|
|        4950|   -7.934341|   -7.278964|   -7.750840|   -7.556243|    0.238590|    1.502943|    0.747865|   -0.366003|
[...]
|SU2 binary restart                 |restart.dat                        |
|Paraview                           |vol_solution.vtu                   |
|Paraview surface                   |surface.vtu                        |
+-----------------------------------------------------------------------+
+--------------------------------------------------------------------------------------------------------------------+
|  Inner_Iter|    rms[Rho]|   rms[RhoU]|   rms[RhoV]|   rms[RhoE]|          CD|          CL|         CMz|   LinSolRes|
+--------------------------------------------------------------------------------------------------------------------+
|       19025|   -9.244003|   -8.844552|   -9.041361|   -8.857579|    0.069083|    2.618026|    1.082098|   -0.274140|
|       19050|   -9.299199|   -8.867327|   -9.105334|   -8.917873|    0.069076|    2.618175|    1.082161|   -0.292036|
|       19075|   -9.390248|   -8.880105|   -9.129415|   -9.018647|    0.069069|    2.618334|    1.082229|   -0.298913|
|       19100|   -9.346328|   -8.887755|   -9.127466|   -8.967337|    0.069061|    2.618468|    1.082285|   -0.327952|
+-----------------------------------------------------------------------+
|        File Writing Summary       |              Filename             |
+-----------------------------------------------------------------------+
|SU2 binary restart                 |restart.dat                        |
|Paraview                           |vol_solution.vtu                   |
|Paraview surface                   |surface.vtu                        |
+-----------------------------------------------------------------------+
+--------------------------------------------------------------------------------------------------------------------+
|  Inner_Iter|    rms[Rho]|   rms[RhoU]|   rms[RhoV]|   rms[RhoE]|          CD|          CL|         CMz|   LinSolRes|
+--------------------------------------------------------------------------------------------------------------------+
|       19125|   -9.370359|   -8.898032|   -9.142652|   -8.993535|    0.069051|    2.618605|    1.082340|   -0.310347|
|       19150|   -9.337490|   -8.902885|   -9.138759|   -8.957076|    0.069046|    2.618747|    1.082402|   -0.238831|
|       19175|   -9.118684|   -8.880003|   -9.013824|   -8.722924|    0.069041|    2.618866|    1.082451|   -0.312637|
|       19200|   -9.446884|   -8.925980|   -9.178194|   -9.077192|    0.069033|    2.618993|    1.082503|   -0.277844|
+-----------------------------------------------------------------------+
|        File Writing Summary       |              Filename             |
+-----------------------------------------------------------------------+
|SU2 binary restart                 |restart.dat                        |
|Paraview                           |vol_solution.vtu                   |
|Paraview surface                   |surface.vtu                        |
+-----------------------------------------------------------------------+
+--------------------------------------------------------------------------------------------------------------------+
|  Inner_Iter|    rms[Rho]|   rms[RhoU]|   rms[RhoV]|   rms[RhoE]|          CD|          CL|         CMz|   LinSolRes|
+--------------------------------------------------------------------------------------------------------------------+
|       19225|   -9.396387|   -8.934995|   -9.176756|   -9.019498|    0.069027|    2.619127|    1.082561|   -0.291375|
|       19250|   -9.412977|   -8.938767|   -9.173973|   -9.036962|    0.069023|    2.619241|    1.082608|   -0.236132|
|       19275|   -9.332638|   -8.954405|   -9.183820|   -8.946830|    0.069019|    2.619358|    1.082656|   -0.377392|
|       19300|   -9.460131|   -8.967782|   -9.223086|   -9.088391|    0.069013|    2.619473|    1.082705|   -0.292176|
+-----------------------------------------------------------------------+
|        File Writing Summary       |              Filename             |
+-----------------------------------------------------------------------+
|SU2 binary restart                 |restart.dat                        |
|Paraview                           |vol_solution.vtu                   |
|Paraview surface                   |surface.vtu                        |
+-----------------------------------------------------------------------+
+--------------------------------------------------------------------------------------------------------------------+
|  Inner_Iter|    rms[Rho]|   rms[RhoU]|   rms[RhoV]|   rms[RhoE]|          CD|          CL|         CMz|   LinSolRes|
+--------------------------------------------------------------------------------------------------------------------+
|       19325|   -9.465092|   -8.977033|   -9.215589|   -9.092111|    0.069006|    2.619590|    1.082752|   -0.274422|
|       19350|   -9.423290|   -8.978264|   -9.204512|   -9.045314|    0.069002|    2.619696|    1.082796|   -0.270324|
|       19375|   -9.521235|   -9.001682|   -9.261528|   -9.153311|    0.069000|    2.619810|    1.082844|   -0.266008|
|       19400|   -9.224878|   -8.993126|   -9.175488|   -8.830202|    0.068993|    2.619907|    1.082882|   -0.366654|
+-----------------------------------------------------------------------+
|        File Writing Summary       |              Filename             |
+-----------------------------------------------------------------------+
|SU2 binary restart                 |restart.dat                        |
|Paraview                           |vol_solution.vtu                   |
|Paraview surface                   |surface.vtu                        |
+-----------------------------------------------------------------------+
+--------------------------------------------------------------------------------------------------------------------+
|  Inner_Iter|    rms[Rho]|   rms[RhoU]|   rms[RhoV]|   rms[RhoE]|          CD|          CL|         CMz|   LinSolRes|
+--------------------------------------------------------------------------------------------------------------------+
|       19425|   -9.330593|   -8.991582|   -9.172469|   -8.941227|    0.068990|    2.620001|    1.082922|   -0.269881|
|       19450|   -9.524643|   -9.026009|   -9.269758|   -9.152584|    0.068987|    2.620101|    1.082963|   -0.287653|
|       19475|   -9.587789|   -9.043393|   -9.284757|   -9.228241|    0.068983|    2.620197|    1.083003|   -0.293886|
|       19500|   -9.497912|   -9.049721|   -9.291135|   -9.121473|    0.068981|    2.620287|    1.083040|   -0.291673|
+-----------------------------------------------------------------------+
|        File Writing Summary       |              Filename             |
+-----------------------------------------------------------------------+
|SU2 binary restart                 |restart.dat                        |
|Paraview                           |vol_solution.vtu                   |
|Paraview surface                   |surface.vtu                        |
+-----------------------------------------------------------------------+
+--------------------------------------------------------------------------------------------------------------------+
|  Inner_Iter|    rms[Rho]|   rms[RhoU]|   rms[RhoV]|   rms[RhoE]|          CD|          CL|         CMz|   LinSolRes|
+--------------------------------------------------------------------------------------------------------------------+
|       19525|   -9.586090|   -9.070437|   -9.330237|   -9.222662|    0.068979|    2.620382|    1.083079|   -0.305568|
|       19550|   -9.493838|   -9.065193|   -9.289249|   -9.113143|    0.068978|    2.620474|    1.083117|   -0.242339|
|       19575|   -9.424321|   -9.075132|   -9.264092|   -9.035927|    0.068973|    2.620543|    1.083144|   -0.312900|
|       19600|   -9.503628|   -9.088725|   -9.307792|   -9.121959|    0.068970|    2.620621|    1.083175|   -0.367767|
+-----------------------------------------------------------------------+
|        File Writing Summary       |              Filename             |
+-----------------------------------------------------------------------+
|SU2 binary restart                 |restart.dat                        |
|Paraview                           |vol_solution.vtu                   |
|Paraview surface                   |surface.vtu                        |
+-----------------------------------------------------------------------+
+--------------------------------------------------------------------------------------------------------------------+
|  Inner_Iter|    rms[Rho]|   rms[RhoU]|   rms[RhoV]|   rms[RhoE]|          CD|          CL|         CMz|   LinSolRes|
+--------------------------------------------------------------------------------------------------------------------+
|       19625|   -9.489906|   -9.101132|   -9.328778|   -9.107068|    0.068969|    2.620696|    1.083207|   -0.331583|
|       19650|   -9.433707|   -9.098315|   -9.297834|   -9.044887|    0.068969|    2.620767|    1.083236|   -0.273376|
|       19675|   -9.608279|   -9.127984|   -9.380192|   -9.237075|    0.068967|    2.620831|    1.083261|   -0.290420|
|       19700|   -9.635786|   -9.136045|   -9.387683|   -9.266318|    0.068965|    2.620904|    1.083291|   -0.289742|
+-----------------------------------------------------------------------+
|        File Writing Summary       |              Filename             |
+-----------------------------------------------------------------------+
|SU2 binary restart                 |restart.dat                        |
|Paraview                           |vol_solution.vtu                   |
|Paraview surface                   |surface.vtu                        |
+-----------------------------------------------------------------------+
+--------------------------------------------------------------------------------------------------------------------+
|  Inner_Iter|    rms[Rho]|   rms[RhoU]|   rms[RhoV]|   rms[RhoE]|          CD|          CL|         CMz|   LinSolRes|
+--------------------------------------------------------------------------------------------------------------------+
|       19725|   -9.547451|   -9.142085|   -9.371642|   -9.164146|    0.068964|    2.620968|    1.083316|   -0.376244|
|       19750|   -9.616979|   -9.166936|   -9.437750|   -9.242822|    0.068963|    2.621024|    1.083339|   -0.334967|
|       19775|   -9.679008|   -9.181238|   -9.449647|   -9.312270|    0.068964|    2.621093|    1.083367|   -0.306840|
|       19800|   -9.691407|   -9.183330|   -9.447998|   -9.322944|    0.068961|    2.621145|    1.083387|   -0.246725|
+-----------------------------------------------------------------------+
|        File Writing Summary       |              Filename             |
+-----------------------------------------------------------------------+
|SU2 binary restart                 |restart.dat                        |
|Paraview                           |vol_solution.vtu                   |
|Paraview surface                   |surface.vtu                        |
+-----------------------------------------------------------------------+
+--------------------------------------------------------------------------------------------------------------------+
|  Inner_Iter|    rms[Rho]|   rms[RhoU]|   rms[RhoV]|   rms[RhoE]|          CD|          CL|         CMz|   LinSolRes|
+--------------------------------------------------------------------------------------------------------------------+
|       19825|   -9.743402|   -9.205072|   -9.502504|   -9.383868|    0.068961|    2.621202|    1.083408|   -0.289661|
|       19850|   -9.650613|   -9.209534|   -9.481999|   -9.275238|    0.068963|    2.621253|    1.083430|   -0.288596|
|       19875|   -9.785241|   -9.230277|   -9.542206|   -9.429758|    0.068961|    2.621306|    1.083450|   -0.317072|
|       19900|   -9.752466|   -9.236545|   -9.533491|   -9.388615|    0.068963|    2.621358|    1.083471|   -0.301234|
+-----------------------------------------------------------------------+
|        File Writing Summary       |              Filename             |
+-----------------------------------------------------------------------+
|SU2 binary restart                 |restart.dat                        |
|Paraview                           |vol_solution.vtu                   |
|Paraview surface                   |surface.vtu                        |
+-----------------------------------------------------------------------+
+--------------------------------------------------------------------------------------------------------------------+
|  Inner_Iter|    rms[Rho]|   rms[RhoU]|   rms[RhoV]|   rms[RhoE]|          CD|          CL|         CMz|   LinSolRes|
+--------------------------------------------------------------------------------------------------------------------+
|       19925|   -9.739888|   -9.239235|   -9.528562|   -9.370344|    0.068965|    2.621404|    1.083489|   -0.261942|
|       19950|   -9.679718|   -9.238282|   -9.488801|   -9.300203|    0.068963|    2.621442|    1.083503|   -0.284975|
|       19975|   -9.624496|   -9.248598|   -9.517976|   -9.239579|    0.068964|    2.621480|    1.083518|   -0.241527|
|       20000|   -9.865458|   -9.277844|   -9.638251|   -9.517131|    0.068965|    2.621519|    1.083532|   -0.369000|
+-----------------------------------------------------------------------+
|        File Writing Summary       |              Filename             |
+-----------------------------------------------------------------------+
|SU2 binary restart                 |restart.dat                        |
|Paraview                           |vol_solution.vtu                   |
|Paraview surface                   |surface.vtu                        |
+-----------------------------------------------------------------------+
+--------------------------------------------------------------------------------------------------------------------+
|  Inner_Iter|    rms[Rho]|   rms[RhoU]|   rms[RhoV]|   rms[RhoE]|          CD|          CL|         CMz|   LinSolRes|
+--------------------------------------------------------------------------------------------------------------------+
|       20025|   -9.866429|   -9.285052|   -9.633699|   -9.514957|    0.068967|    2.621558|    1.083547|   -0.355118|
|       20050|   -9.929033|   -9.300605|   -9.694297|   -9.593179|    0.068968|    2.621594|    1.083560|   -0.423390|
|       20075|   -9.818703|   -9.291140|   -9.610333|   -9.451054|    0.068968|    2.621624|    1.083571|   -0.320771|
|       20100|   -9.792897|   -9.296504|   -9.643395|   -9.422510|    0.068970|    2.621649|    1.083581|   -0.260764|
+-----------------------------------------------------------------------+
|        File Writing Summary       |              Filename             |
+-----------------------------------------------------------------------+
|SU2 binary restart                 |restart.dat                        |
|Paraview                           |vol_solution.vtu                   |
|Paraview surface                   |surface.vtu                        |
+-----------------------------------------------------------------------+
+--------------------------------------------------------------------------------------------------------------------+
|  Inner_Iter|    rms[Rho]|   rms[RhoU]|   rms[RhoV]|   rms[RhoE]|          CD|          CL|         CMz|   LinSolRes|
+--------------------------------------------------------------------------------------------------------------------+
|       20125|   -9.805640|   -9.300148|   -9.646301|   -9.435268|    0.068973|    2.621681|    1.083592|   -0.363555|
|       20150|   -9.889733|   -9.312331|   -9.717824|   -9.529124|    0.068974|    2.621698|    1.083598|   -0.384079|
|       20175|   -9.996935|   -9.329083|   -9.807587|   -9.673175|    0.068978|    2.621726|    1.083607|   -0.466136|
|       20200|   -9.972564|   -9.330190|   -9.805271|   -9.630940|    0.068981|    2.621746|    1.083615|   -0.464335|
+-----------------------------------------------------------------------+
|        File Writing Summary       |              Filename             |
+-----------------------------------------------------------------------+
|SU2 binary restart                 |restart.dat                        |
|Paraview                           |vol_solution.vtu                   |
|Paraview surface                   |surface.vtu                        |
+-----------------------------------------------------------------------+
+--------------------------------------------------------------------------------------------------------------------+
|  Inner_Iter|    rms[Rho]|   rms[RhoU]|   rms[RhoV]|   rms[RhoE]|          CD|          CL|         CMz|   LinSolRes|
+--------------------------------------------------------------------------------------------------------------------+
|       20225|   -9.958620|   -9.334443|   -9.838654|   -9.617772|    0.068982|    2.621767|    1.083620|   -0.428757|
|       20250|   -9.874426|   -9.320947|   -9.740457|   -9.506427|    0.068986|    2.621782|    1.083627|   -0.319553|
|       20275|  -10.001955|   -9.333411|   -9.897799|   -9.666574|    0.068988|    2.621791|    1.083628|   -0.477062|
|       20300|   -9.969807|   -9.327816|   -9.836350|   -9.617972|    0.068992|    2.621805|    1.083633|   -0.397347|
+-----------------------------------------------------------------------+
|        File Writing Summary       |              Filename             |
+-----------------------------------------------------------------------+
|SU2 binary restart                 |restart.dat                        |
|Paraview                           |vol_solution.vtu                   |
|Paraview surface                   |surface.vtu                        |
+-----------------------------------------------------------------------+
+--------------------------------------------------------------------------------------------------------------------+
|  Inner_Iter|    rms[Rho]|   rms[RhoU]|   rms[RhoV]|   rms[RhoE]|          CD|          CL|         CMz|   LinSolRes|
+--------------------------------------------------------------------------------------------------------------------+
|       20302|   -9.922311|   -9.326047|   -9.820163|   -9.558988|    0.068992|    2.621805|    1.083632|   -0.475405|

----------------------------- Solver Exit -------------------------------
All convergence criteria satisfied.
+-----------------------------------------------------------------------+
|      Convergence Field     |     Value    |   Criterion  |  Converged |
+-----------------------------------------------------------------------+
|                  Cauchy[CL]|   4.99962e-07|       < 5e-07|         Yes|
+-----------------------------------------------------------------------+
-------------------------------------------------------------------------
+-----------------------------------------------------------------------+
|        File Writing Summary       |              Filename             |
+-----------------------------------------------------------------------+
|SU2 binary restart                 |restart.dat                        |
|Paraview                           |vol_solution.vtu                   |
|Paraview surface                   |surface.vtu                        |
+-----------------------------------------------------------------------+

------------------------- Solver Postprocessing -------------------------
Deleted CNumerics container.
Deleted CIntegration container.
Deleted CSolver container.
Deleted CIteration container.
Deleted CInterface container.
Deleted CGeometry container.
Deleted CFreeFormDefBox class.
Deleted CSurfaceMovement class.
Deleted CVolumetricMovement class.
Deleted CConfig container.
Deleted nInst container.
Deleted COutput class.
-------------------------------------------------------------------------

------------------------- Exit Success (SU2_CFD) ------------------------

