WARNING: The current SST-1994m model is inconsistent with literature. We recommend using the SST-2003m model.
In SU2 v8 the 2003m model will become default, and the inconsistency will be fixed.

-------------------------------------------------------------------------
|    ___ _   _ ___                                                      |
|   / __| | | |_  )   Release 7.4.0 "Blackbird"                         |
|   \__ \ |_| |/ /                                                      |
|   |___/\___//___|   Suite (Computational Fluid Dynamics Code)         |
|                                                                       |
-------------------------------------------------------------------------
| SU2 Project Website: https://su2code.github.io                        |
|                                                                       |
| The SU2 Project is maintained by the SU2 Foundation                   |
| (http://su2foundation.org)                                            |
-------------------------------------------------------------------------
| Copyright 2012-2022, SU2 Contributors                                 |
|                                                                       |
| SU2 is free software; you can redistribute it and/or                  |
| modify it under the terms of the GNU Lesser General Public            |
| License as published by the Free Software Foundation; either          |
| version 2.1 of the License, or (at your option) any later version.    |
|                                                                       |
| SU2 is distributed in the hope that it will be useful,                |
| but WITHOUT ANY WARRANTY; without even the implied warranty of        |
| MERCHANTABILITY or FITNESS FOR A PARTICULAR PURPOSE. See the GNU      |
| Lesser General Public License for more details.                       |
|                                                                       |
| You should have received a copy of the GNU Lesser General Public      |
| License along with SU2. If not, see <http://www.gnu.org/licenses/>.   |
-------------------------------------------------------------------------
WARNING: The current SST-1994m model is inconsistent with literature. We recommend using the SST-2003m model.
In SU2 v8 the 2003m model will become default, and the inconsistency will be fixed.

Parsing config file for zone 0
WARNING: The current SST-1994m model is inconsistent with literature. We recommend using the SST-2003m model.
In SU2 v8 the 2003m model will become default, and the inconsistency will be fixed.

----------------- Physical Case Definition ( Zone 0 ) -------------------
Compressible RANS equations.
Turbulence model: Menter's k-omega SST-1994m with no production modification.
Hybrid RANS/LES: No Hybrid RANS/LES
Mach number: 0.21.
Angle of attack (AoA): 14 deg, and angle of sideslip (AoS): 0 deg.
Reynolds number: 1.28186e+07. Reference length 2.62.
Reading and writing binary SU2 native restart files.
Read flow solution from: solution_flow.
Non-Dimensional simulation (V=Mach, Rho=1.0, T=1.0 at the farfield).
The reference area is 2.62 m^2.
The semi-span will be computed using the max y(3D) value.
The reference length is 2.62 m.
Reference origin for moment evaluation is (0, 0, 0).
Surface(s) where the force coefficients are evaluated: wall.

Surface(s) plotted in the output file: wall.
Input mesh file name: su2meshEx.su2

--------------- Space Numerical Integration ( Zone 0 ) ------------------
Roe (with entropy fix = 1e-05) solver for the flow inviscid terms.
Standard Roe without low-dissipation function.
Second order integration in space, with slope limiter.
Van Albada slope-limiting method implemented by edges.
Scalar upwind solver for the turbulence model.
First order integration in space.
Average of gradients with correction (viscous flow terms).
Average of gradients with correction (viscous turbulence terms).
Gradient for upwind reconstruction: Green-Gauss.
Gradient for viscous and source terms: Green-Gauss.

--------------- Time Numerical Integration  ( Zone 0 ) ------------------
Local time stepping (steady state simulation).
Euler implicit method for the flow equations.
FGMRES is used for solving the linear system.
Using a ILU(0) preconditioning.
Convergence criteria of the linear solver: 0.2.
Max number of linear iterations: 4.
CFL adaptation. Factor down: 0.1, factor up: 1.2,
                lower limit: 25, upper limit: 1000,
                acceptable linear residual: 0.001.
Courant-Friedrichs-Lewy number:       25
Euler implicit time integration for the turbulence model.

------------------ Convergence Criteria  ( Zone 0 ) ---------------------
Maximum number of solver subiterations: 25000.
Begin convergence monitoring at iteration 10.
Residual minimum value: 1e-11.5.
Cauchy series min. value: 5e-07.
Number of Cauchy elements: 500.
Begin windowed time average at iteration 0.

-------------------- Output Information ( Zone 0 ) ----------------------
File writing frequency: 
+------------------------------------+
|                     File| Frequency|
+------------------------------------+
|                  RESTART|       100|
|                 PARAVIEW|       100|
|         SURFACE_PARAVIEW|       100|
+------------------------------------+
Writing the convergence history file every 1 inner iterations.
Writing the screen convergence history every 25 inner iterations.
The tabular file format is CSV (.csv).
Convergence history file name: history.
Forces breakdown file name: forces_breakdown.dat.
Surface file name: surface.
Volume file name: vol_solution.
Restart file name: restart.dat.

------------- Config File Boundary Information ( Zone 0 ) ---------------
+-----------------------------------------------------------------------+
|                        Marker Type|                        Marker Name|
+-----------------------------------------------------------------------+
|                          Far-field|                          far-field|
+-----------------------------------------------------------------------+
|                     Heat flux wall|                               wall|
+-----------------------------------------------------------------------+

-------------------- Output Preprocessing ( Zone 0 ) --------------------

WARNING: SURFACE_PRESSURE_DROP can only be computed for at least 2 surfaces (outlet, inlet, ...)

  Info: Ignoring the following screen output fields:
  RMS_NU_TILDE
Screen output fields: INNER_ITER, RMS_DENSITY, RMS_MOMENTUM-X, RMS_MOMENTUM-Y, RMS_ENERGY, DRAG, LIFT, MOMENT_Z, LINSOL_RESIDUAL
History output group(s): ITER, RMS_RES, AERO_COEFF
Convergence field(s): LIFT
Warning: No (valid) fields chosen for time convergence monitoring. Time convergence monitoring inactive.
Volume output fields: COORDINATES, SOLUTION, PRIMITIVE

------------------- Geometry Preprocessing ( Zone 0 ) -------------------
Two dimensional problem.
66015 grid points before partitioning.
65610 volume elements before partitioning.
2 surface markers.
405 boundary elements in index 0 (Marker = far-field).
405 boundary elements in index 1 (Marker = wall).
Executing the partitioning functions.
Building the graph adjacency structure.
Calling ParMETIS... graph partitioning complete (888 edge cuts).
Distributing ParMETIS coloring.
Rebalancing vertices.
Rebalancing volume element connectivity.
Rebalancing markers and surface elements.
67791 vertices including ghost points. 
66494 interior elements including halo cells. 
66494 quadrilaterals.
Establishing MPI communication patterns.
Setting point connectivity.
Renumbering points (Reverse Cuthill McKee Ordering).
Recomputing point connectivity.
Setting element connectivity.
Checking the numerical grid orientation.
All volume elements are correctly orientend.
All surface elements are correctly orientend.
Identifying edges and vertices.
Setting the control volume structure.
Area of the computational grid: 177681.
Searching for the closest normal neighbors to the surfaces.
Storing a mapping from global to local point index.
Compute the surface curvature.
Max K: 1084.38. Mean K: 3.59037. Standard deviation K: 49.7608.
Checking for periodicity.
Computing mesh quality statistics for the dual control volumes.
+--------------------------------------------------------------+
|           Mesh Quality Metric|        Minimum|        Maximum|
+--------------------------------------------------------------+
|    Orthogonality Angle (deg.)|         82.757|             90|
|     CV Face Area Aspect Ratio|        1.00372|        11629.9|
|           CV Sub-Volume Ratio|              1|        2.23945|
+--------------------------------------------------------------+
Finding max control volume width.
Communicating number of neighbors.
Wetted area = 5.32649 m.
Area projection in the x-plane = 0.29702 m, y-plane = 2.61984 m.
Max. coordinate in the x-direction = 2.62 m, y-direction = 0.165086 m.
Min. coordinate in the x-direction = 0 m, y-direction = -0.119236 m.
Computing wall distances.

-------------------- Solver Preprocessing ( Zone 0 ) --------------------
Viscous flow: Computing pressure using the ideal gas law
based on the free-stream temperature and a density computed
from the Reynolds number.
Force coefficients computed using free-stream values.

-- Models:
+------------------------------------------------------------------------------+
|          Viscosity Model|        Conductivity Model|              Fluid Model|
+------------------------------------------------------------------------------+
|               SUTHERLAND|          CONSTANT_PRANDTL|             STANDARD_AIR|
+------------------------------------------------------------------------------+
-- Fluid properties:
+------------------------------------------------------------------------------+
|                  Name|    Dim. value|    Ref. value|      Unit|Non-dim. value|
+------------------------------------------------------------------------------+
|        Ref. Viscosity|     1.716e-05|       416.883|   N.s/m^2|   4.11626e-08|
|      Sutherland Temp.|        273.15|        288.16|         K|      0.947911|
|     Sutherland Const.|         110.4|        288.16|         K|       0.38312|
+------------------------------------------------------------------------------+
|        Prandtl (Lam.)|             -|             -|         -|          0.72|
|       Prandtl (Turb.)|             -|             -|         -|           0.9|
+------------------------------------------------------------------------------+
|          Gas Constant|       287.058|       401.881|  N.m/kg.K|      0.714286|
|      Spec. Heat Ratio|             -|             -|         -|           1.4|
+------------------------------------------------------------------------------+
-- Initial and free-stream conditions:
+------------------------------------------------------------------------------+
|                  Name|    Dim. value|    Ref. value|      Unit|Non-dim. value|
+------------------------------------------------------------------------------+
|       Static Pressure|        101333|        141867|        Pa|      0.714286|
|               Density|       1.22504|       1.22504|    kg/m^3|             1|
|           Temperature|        288.16|        288.16|         K|             1|
|          Total Energy|        209369|        115806|   m^2/s^2|       1.80793|
|            Velocity-X|       69.3408|       340.303|       m/s|      0.203762|
|            Velocity-Y|       17.2886|       340.303|       m/s|     0.0508036|
|    Velocity Magnitude|       71.4636|       340.303|       m/s|          0.21|
+------------------------------------------------------------------------------+
|             Viscosity|   1.78935e-05|       416.883|   N.s/m^2|    4.2922e-08|
|          Conductivity|             -|        167537|   W/m^2.K|             -|
|     Turb. Kin. Energy|       19.1514|        115806|   m^2/s^2|   0.000165375|
|     Spec. Dissipation|        131116|       340.303|       1/s|       385.292|
+------------------------------------------------------------------------------+
|           Mach Number|             -|             -|         -|          0.21|
|       Reynolds Number|             -|             -|         -|   1.28186e+07|
+------------------------------------------------------------------------------+
Initialize Jacobian structure (Navier-Stokes). MG level: 0.
Initialize Jacobian structure (SST model).

------------------- Numerics Preprocessing ( Zone 0 ) -------------------

----------------- Integration Preprocessing ( Zone 0 ) ------------------

------------------- Iteration Preprocessing ( Zone 0 ) ------------------
Euler/Navier-Stokes/RANS fluid iteration.

------------------------------ Begin Solver -----------------------------

Simulation Run using the Single-zone Driver
WARNING: SU2 was not compiled for an AVX-capable architecture.
+--------------------------------------------------------------------------------------------------------------------+
|  Inner_Iter|    rms[Rho]|   rms[RhoU]|   rms[RhoV]|   rms[RhoE]|          CD|          CL|         CMz|   LinSolRes|
+--------------------------------------------------------------------------------------------------------------------+
|           0|   -3.421082|   -3.702148|   -3.455693|   -3.017301|    0.052450|    1.617011|    0.459241|   -0.851167|
|          25|   -5.469412|   -4.894190|   -4.821748|   -5.055496|    0.059518|    1.665627|    0.483363|   -0.707197|
|          50|   -5.777776|   -4.992569|   -5.132601|   -5.329209|    0.050238|    1.682830|    0.477842|   -0.633542|
|          75|   -6.106627|   -5.149483|   -5.530074|   -5.580054|    0.033328|    1.775763|    0.502089|   -0.785741|
|         100|   -6.280928|   -5.289882|   -5.735953|   -5.724946|    0.013265|    1.730572|    0.479382|   -0.680237|
+-----------------------------------------------------------------------+
|        File Writing Summary       |              Filename             |
+-----------------------------------------------------------------------+
|SU2 binary restart                 |restart.dat                        |
|Paraview                           |vol_solution.vtu                   |
|Paraview surface                   |surface.vtu                        |
+-----------------------------------------------------------------------+
+--------------------------------------------------------------------------------------------------------------------+
|  Inner_Iter|    rms[Rho]|   rms[RhoU]|   rms[RhoV]|   rms[RhoE]|          CD|          CL|         CMz|   LinSolRes|
+--------------------------------------------------------------------------------------------------------------------+
|         125|   -6.214903|   -5.496617|   -5.921276|   -5.808545|    0.027366|    1.696491|    0.474576|   -0.650029|
|         150|   -6.415514|   -5.754934|   -6.246674|   -5.970185|    0.033684|    1.708182|    0.480589|   -0.648515|
|         175|   -6.995097|   -6.134834|   -6.527759|   -6.477657|    0.030408|    1.718156|    0.481795|   -0.684546|
|         200|   -7.510740|   -6.414813|   -6.936652|   -6.976490|    0.028323|    1.716781|    0.480457|   -0.672824|
+-----------------------------------------------------------------------+
|        File Writing Summary       |              Filename             |
+-----------------------------------------------------------------------+
|SU2 binary restart                 |restart.dat                        |
|Paraview                           |vol_solution.vtu                   |
|Paraview surface                   |surface.vtu                        |
+-----------------------------------------------------------------------+
+--------------------------------------------------------------------------------------------------------------------+
|  Inner_Iter|    rms[Rho]|   rms[RhoU]|   rms[RhoV]|   rms[RhoE]|          CD|          CL|         CMz|   LinSolRes|
+--------------------------------------------------------------------------------------------------------------------+
|         225|   -7.591669|   -6.609823|   -7.112078|   -7.080320|    0.028231|    1.713862|    0.479451|   -0.643230|
|         250|   -7.853915|   -6.792256|   -7.247573|   -7.280499|    0.028666|    1.711234|    0.478769|   -0.834821|
|         275|   -7.865917|   -6.944142|   -7.456290|   -7.399156|    0.028969|    1.709578|    0.478233|   -0.891679|
|         300|   -8.256316|   -7.114770|   -7.626679|   -7.674120|    0.028966|    1.708370|    0.477710|   -0.581151|
+-----------------------------------------------------------------------+
|        File Writing Summary       |              Filename             |
+-----------------------------------------------------------------------+
|SU2 binary restart                 |restart.dat                        |
|Paraview                           |vol_solution.vtu                   |
|Paraview surface                   |surface.vtu                        |
+-----------------------------------------------------------------------+
+--------------------------------------------------------------------------------------------------------------------+
|  Inner_Iter|    rms[Rho]|   rms[RhoU]|   rms[RhoV]|   rms[RhoE]|          CD|          CL|         CMz|   LinSolRes|
+--------------------------------------------------------------------------------------------------------------------+
|         325|   -8.273846|   -7.302995|   -7.656576|   -7.769521|    0.028830|    1.707007|    0.477079|   -0.699638|
|         350|   -8.121929|   -7.358383|   -7.639649|   -7.701346|    0.028747|    1.705703|    0.476564|   -0.759512|
|         375|   -8.207635|   -7.352484|   -7.666618|   -7.812410|    0.028690|    1.704263|    0.476035|   -0.542818|
|         400|   -8.154337|   -7.341535|   -7.718726|   -7.775005|    0.028718|    1.702875|    0.475591|   -0.584363|
+-----------------------------------------------------------------------+
|        File Writing Summary       |              Filename             |
+-----------------------------------------------------------------------+
|SU2 binary restart                 |restart.dat                        |
|Paraview                           |vol_solution.vtu                   |
|Paraview surface                   |surface.vtu                        |
+-----------------------------------------------------------------------+
+--------------------------------------------------------------------------------------------------------------------+
|  Inner_Iter|    rms[Rho]|   rms[RhoU]|   rms[RhoV]|   rms[RhoE]|          CD|          CL|         CMz|   LinSolRes|
+--------------------------------------------------------------------------------------------------------------------+
|         425|   -8.219377|   -7.397924|   -7.828643|   -7.864181|    0.028759|    1.701450|    0.475117|   -0.701003|
|         450|   -8.351912|   -7.509133|   -7.981830|   -8.028810|    0.028829|    1.700105|    0.474683|   -0.673653|
|         475|   -8.422810|   -7.609333|   -8.089378|   -8.073437|    0.028899|    1.698817|    0.474260|   -0.725479|
|         500|   -8.489412|   -7.660754|   -8.140300|   -8.117160|    0.028973|    1.697566|    0.473855|   -0.782099|
+-----------------------------------------------------------------------+
|        File Writing Summary       |              Filename             |
+-----------------------------------------------------------------------+
|SU2 binary restart                 |restart.dat                        |
|Paraview                           |vol_solution.vtu                   |
|Paraview surface                   |surface.vtu                        |
+-----------------------------------------------------------------------+
+--------------------------------------------------------------------------------------------------------------------+
|  Inner_Iter|    rms[Rho]|   rms[RhoU]|   rms[RhoV]|   rms[RhoE]|          CD|          CL|         CMz|   LinSolRes|
+--------------------------------------------------------------------------------------------------------------------+
|         525|   -8.559579|   -7.700289|   -8.162872|   -8.189226|    0.029049|    1.696431|    0.473490|   -0.806916|
|         550|   -8.550550|   -7.731207|   -8.135705|   -8.207179|    0.029108|    1.695358|    0.473142|   -0.752362|
|         575|   -8.506412|   -7.734545|   -8.104476|   -8.156800|    0.029172|    1.694381|    0.472832|   -0.637951|
|         600|   -8.549978|   -7.727508|   -8.105058|   -8.220326|    0.029221|    1.693495|    0.472547|   -0.836371|
+-----------------------------------------------------------------------+
|        File Writing Summary       |              Filename             |
+-----------------------------------------------------------------------+
|SU2 binary restart                 |restart.dat                        |
|Paraview                           |vol_solution.vtu                   |
|Paraview surface                   |surface.vtu                        |
+-----------------------------------------------------------------------+
+--------------------------------------------------------------------------------------------------------------------+
|  Inner_Iter|    rms[Rho]|   rms[RhoU]|   rms[RhoV]|   rms[RhoE]|          CD|          CL|         CMz|   LinSolRes|
+--------------------------------------------------------------------------------------------------------------------+
|         625|   -8.578275|   -7.723640|   -8.117425|   -8.255591|    0.029258|    1.692666|    0.472275|   -0.930844|
|         650|   -8.589677|   -7.729906|   -8.143608|   -8.261201|    0.029290|    1.691845|    0.472001|   -0.977458|
|         675|   -8.623825|   -7.746498|   -8.177735|   -8.293924|    0.029324|    1.691038|    0.471737|   -0.892462|
|         700|   -8.650962|   -7.769776|   -8.212770|   -8.317963|    0.029356|    1.690212|    0.471462|   -0.712044|
+-----------------------------------------------------------------------+
|        File Writing Summary       |              Filename             |
+-----------------------------------------------------------------------+
|SU2 binary restart                 |restart.dat                        |
|Paraview                           |vol_solution.vtu                   |
|Paraview surface                   |surface.vtu                        |
+-----------------------------------------------------------------------+
+--------------------------------------------------------------------------------------------------------------------+
|  Inner_Iter|    rms[Rho]|   rms[RhoU]|   rms[RhoV]|   rms[RhoE]|          CD|          CL|         CMz|   LinSolRes|
+--------------------------------------------------------------------------------------------------------------------+
|         725|   -8.680836|   -7.799065|   -8.243902|   -8.345433|    0.029392|    1.689418|    0.471201|   -0.761568|
|         750|   -8.662910|   -7.829515|   -8.264079|   -8.317169|    0.029422|    1.688598|    0.470925|   -0.850327|
|         775|   -8.714551|   -7.858333|   -8.281036|   -8.380558|    0.029460|    1.687828|    0.470674|   -0.801276|
|         800|   -8.736315|   -7.882059|   -8.289965|   -8.407259|    0.029490|    1.687068|    0.470419|   -0.862974|
+-----------------------------------------------------------------------+
|        File Writing Summary       |              Filename             |
+-----------------------------------------------------------------------+
|SU2 binary restart                 |restart.dat                        |
|Paraview                           |vol_solution.vtu                   |
|Paraview surface                   |surface.vtu                        |
+-----------------------------------------------------------------------+
+--------------------------------------------------------------------------------------------------------------------+
|  Inner_Iter|    rms[Rho]|   rms[RhoU]|   rms[RhoV]|   rms[RhoE]|          CD|          CL|         CMz|   LinSolRes|
+--------------------------------------------------------------------------------------------------------------------+
|         825|   -8.758811|   -7.900344|   -8.295771|   -8.435456|    0.029523|    1.686367|    0.470189|   -0.902928|
|         850|   -8.765951|   -7.914540|   -8.299284|   -8.444653|    0.029548|    1.685658|    0.469949|   -0.787314|
|         875|   -8.775586|   -7.925497|   -8.304207|   -8.454082|    0.029573|    1.684994|    0.469727|   -0.875041|
|         900|   -8.783921|   -7.935934|   -8.312675|   -8.464661|    0.029595|    1.684350|    0.469509|   -0.922205|
+-----------------------------------------------------------------------+
|        File Writing Summary       |              Filename             |
+-----------------------------------------------------------------------+
|SU2 binary restart                 |restart.dat                        |
|Paraview                           |vol_solution.vtu                   |
|Paraview surface                   |surface.vtu                        |
+-----------------------------------------------------------------------+
+--------------------------------------------------------------------------------------------------------------------+
|  Inner_Iter|    rms[Rho]|   rms[RhoU]|   rms[RhoV]|   rms[RhoE]|          CD|          CL|         CMz|   LinSolRes|
+--------------------------------------------------------------------------------------------------------------------+
|         925|   -8.800220|   -7.947716|   -8.322455|   -8.482980|    0.029616|    1.683720|    0.469295|   -0.902906|
|         950|   -8.809844|   -7.960996|   -8.333643|   -8.493124|    0.029636|    1.683101|    0.469085|   -0.917424|
|         975|   -8.823904|   -7.975412|   -8.346082|   -8.509737|    0.029656|    1.682498|    0.468880|   -0.899195|
|        1000|   -8.835533|   -7.990409|   -8.358291|   -8.522483|    0.029674|    1.681903|    0.468678|   -0.914561|
+-----------------------------------------------------------------------+
|        File Writing Summary       |              Filename             |
+-----------------------------------------------------------------------+
|SU2 binary restart                 |restart.dat                        |
|Paraview                           |vol_solution.vtu                   |
|Paraview surface                   |surface.vtu                        |
+-----------------------------------------------------------------------+
+--------------------------------------------------------------------------------------------------------------------+
|  Inner_Iter|    rms[Rho]|   rms[RhoU]|   rms[RhoV]|   rms[RhoE]|          CD|          CL|         CMz|   LinSolRes|
+--------------------------------------------------------------------------------------------------------------------+
|        1025|   -8.850130|   -8.005588|   -8.369797|   -8.539376|    0.029693|    1.681323|    0.468480|   -0.898221|
|        1050|   -8.860081|   -8.020278|   -8.380560|   -8.550036|    0.029711|    1.680754|    0.468286|   -0.911194|
|        1075|   -8.873271|   -8.034031|   -8.390198|   -8.565371|    0.029728|    1.680196|    0.468095|   -0.897522|
|        1100|   -8.881879|   -8.046472|   -8.399258|   -8.574297|    0.029744|    1.679651|    0.467909|   -0.908525|
+-----------------------------------------------------------------------+
|        File Writing Summary       |              Filename             |
+-----------------------------------------------------------------------+
|SU2 binary restart                 |restart.dat                        |
|Paraview                           |vol_solution.vtu                   |
|Paraview surface                   |surface.vtu                        |
+-----------------------------------------------------------------------+
+--------------------------------------------------------------------------------------------------------------------+
|  Inner_Iter|    rms[Rho]|   rms[RhoU]|   rms[RhoV]|   rms[RhoE]|          CD|          CL|         CMz|   LinSolRes|
+--------------------------------------------------------------------------------------------------------------------+
|        1125|   -8.893994|   -8.058634|   -8.408066|   -8.587730|    0.029760|    1.679116|    0.467726|   -0.901098|
|        1150|   -8.902841|   -8.070055|   -8.416815|   -8.596794|    0.029776|    1.678594|    0.467547|   -0.903102|
|        1175|   -8.914035|   -8.081161|   -8.425798|   -8.609199|    0.029791|    1.678082|    0.467372|   -0.905254|
|        1200|   -8.923030|   -8.092080|   -8.435010|   -8.618299|    0.029805|    1.677581|    0.467200|   -0.896740|
+-----------------------------------------------------------------------+
|        File Writing Summary       |              Filename             |
+-----------------------------------------------------------------------+
|SU2 binary restart                 |restart.dat                        |
|Paraview                           |vol_solution.vtu                   |
|Paraview surface                   |surface.vtu                        |
+-----------------------------------------------------------------------+
+--------------------------------------------------------------------------------------------------------------------+
|  Inner_Iter|    rms[Rho]|   rms[RhoU]|   rms[RhoV]|   rms[RhoE]|          CD|          CL|         CMz|   LinSolRes|
+--------------------------------------------------------------------------------------------------------------------+
|        1225|   -8.934856|   -8.103177|   -8.444754|   -8.631002|    0.029819|    1.677091|    0.467031|   -0.906647|
|        1250|   -8.944521|   -8.114292|   -8.454557|   -8.640826|    0.029833|    1.676611|    0.466866|   -0.893584|
|        1275|   -8.955940|   -8.125598|   -8.464522|   -8.652887|    0.029846|    1.676141|    0.466705|   -0.906627|
|        1300|   -8.966718|   -8.136941|   -8.474486|   -8.664044|    0.029859|    1.675681|    0.466547|   -0.894059|
+-----------------------------------------------------------------------+
|        File Writing Summary       |              Filename             |
+-----------------------------------------------------------------------+
|SU2 binary restart                 |restart.dat                        |
|Paraview                           |vol_solution.vtu                   |
|Paraview surface                   |surface.vtu                        |
+-----------------------------------------------------------------------+
+--------------------------------------------------------------------------------------------------------------------+
|  Inner_Iter|    rms[Rho]|   rms[RhoU]|   rms[RhoV]|   rms[RhoE]|          CD|          CL|         CMz|   LinSolRes|
+--------------------------------------------------------------------------------------------------------------------+
|        1325|   -8.976926|   -8.148261|   -8.484398|   -8.674372|    0.029872|    1.675232|    0.466392|   -0.906046|
|        1350|   -8.988288|   -8.159569|   -8.494232|   -8.686195|    0.029884|    1.674788|    0.466239|   -0.891418|
|        1375|   -8.998924|   -8.171069|   -8.504285|   -8.696901|    0.029896|    1.674347|    0.466087|   -0.897600|
|        1400|   -9.008106|   -8.182304|   -8.514442|   -8.704276|    0.029907|    1.673916|    0.465938|   -0.882646|
+-----------------------------------------------------------------------+
|        File Writing Summary       |              Filename             |
+-----------------------------------------------------------------------+
|SU2 binary restart                 |restart.dat                        |
|Paraview                           |vol_solution.vtu                   |
|Paraview surface                   |surface.vtu                        |
+-----------------------------------------------------------------------+
+--------------------------------------------------------------------------------------------------------------------+
|  Inner_Iter|    rms[Rho]|   rms[RhoU]|   rms[RhoV]|   rms[RhoE]|          CD|          CL|         CMz|   LinSolRes|
+--------------------------------------------------------------------------------------------------------------------+
|        1425|   -9.013233|   -8.193503|   -8.524238|   -8.708215|    0.029918|    1.673495|    0.465793|   -0.736337|
|        1450|   -9.030562|   -8.204857|   -8.534811|   -8.729757|    0.029930|    1.673093|    0.465656|   -0.898941|
|        1475|   -9.043713|   -8.215900|   -8.544368|   -8.741080|    0.029938|    1.672680|    0.465511|   -0.881313|
|        1500|   -9.046459|   -8.226682|   -8.553706|   -8.742880|    0.029952|    1.672301|    0.465383|   -0.860370|
+-----------------------------------------------------------------------+
|        File Writing Summary       |              Filename             |
+-----------------------------------------------------------------------+
|SU2 binary restart                 |restart.dat                        |
|Paraview                           |vol_solution.vtu                   |
|Paraview surface                   |surface.vtu                        |
+-----------------------------------------------------------------------+
+--------------------------------------------------------------------------------------------------------------------+
|  Inner_Iter|    rms[Rho]|   rms[RhoU]|   rms[RhoV]|   rms[RhoE]|          CD|          CL|         CMz|   LinSolRes|
+--------------------------------------------------------------------------------------------------------------------+
|        1525|   -9.047385|   -8.237411|   -8.562861|   -8.740823|    0.029960|    1.671912|    0.465246|   -0.711778|
|        1550|   -9.060357|   -8.248153|   -8.570628|   -8.752689|    0.029970|    1.671541|    0.465119|   -0.802222|
|        1575|   -9.046574|   -8.258849|   -8.579729|   -8.729129|    0.029977|    1.671162|    0.464986|   -0.762922|
|        1600|   -9.079732|   -8.270301|   -8.591409|   -8.774216|    0.029989|    1.670804|    0.464863|   -0.698612|
+-----------------------------------------------------------------------+
|        File Writing Summary       |              Filename             |
+-----------------------------------------------------------------------+
|SU2 binary restart                 |restart.dat                        |
|Paraview                           |vol_solution.vtu                   |
|Paraview surface                   |surface.vtu                        |
+-----------------------------------------------------------------------+
+--------------------------------------------------------------------------------------------------------------------+
|  Inner_Iter|    rms[Rho]|   rms[RhoU]|   rms[RhoV]|   rms[RhoE]|          CD|          CL|         CMz|   LinSolRes|
+--------------------------------------------------------------------------------------------------------------------+
|        1625|   -9.089711|   -8.281397|   -8.600598|   -8.782456|    0.029995|    1.670439|    0.464735|   -0.691388|
|        1650|   -9.111573|   -8.292873|   -8.612166|   -8.812609|    0.030007|    1.670101|    0.464619|   -0.890927|
|        1675|   -9.105607|   -8.303492|   -8.620238|   -8.798171|    0.030014|    1.669761|    0.464501|   -0.808685|
|        1700|   -9.131929|   -8.313981|   -8.629905|   -8.833558|    0.030021|    1.669434|    0.464386|   -0.885217|
+-----------------------------------------------------------------------+
|        File Writing Summary       |              Filename             |
+-----------------------------------------------------------------------+
|SU2 binary restart                 |restart.dat                        |
|Paraview                           |vol_solution.vtu                   |
|Paraview surface                   |surface.vtu                        |
+-----------------------------------------------------------------------+
+--------------------------------------------------------------------------------------------------------------------+
|  Inner_Iter|    rms[Rho]|   rms[RhoU]|   rms[RhoV]|   rms[RhoE]|          CD|          CL|         CMz|   LinSolRes|
+--------------------------------------------------------------------------------------------------------------------+
|        1725|   -9.129229|   -8.324097|   -8.638004|   -8.826446|    0.030029|    1.669111|    0.464275|   -0.839065|
|        1750|   -9.149029|   -8.334826|   -8.647493|   -8.851106|    0.030036|    1.668789|    0.464162|   -0.881728|
|        1775|   -9.108446|   -8.343768|   -8.649635|   -8.787289|    0.030044|    1.668471|    0.464052|   -0.643464|
|        1800|   -9.166702|   -8.355504|   -8.666412|   -8.868965|    0.030051|    1.668162|    0.463943|   -0.872476|
+-----------------------------------------------------------------------+
|        File Writing Summary       |              Filename             |
+-----------------------------------------------------------------------+
|SU2 binary restart                 |restart.dat                        |
|Paraview                           |vol_solution.vtu                   |
|Paraview surface                   |surface.vtu                        |
+-----------------------------------------------------------------------+
+--------------------------------------------------------------------------------------------------------------------+
|  Inner_Iter|    rms[Rho]|   rms[RhoU]|   rms[RhoV]|   rms[RhoE]|          CD|          CL|         CMz|   LinSolRes|
+--------------------------------------------------------------------------------------------------------------------+
|        1825|   -9.145885|   -8.365633|   -8.673051|   -8.832345|    0.030057|    1.667863|    0.463839|   -0.770859|
|        1850|   -9.182393|   -8.376585|   -8.684228|   -8.885244|    0.030064|    1.667567|    0.463734|   -0.867219|
|        1875|   -9.204971|   -8.386187|   -8.693570|   -8.912019|    0.030070|    1.667285|    0.463637|   -0.897310|
|        1900|   -9.204396|   -8.396103|   -8.701004|   -8.906583|    0.030074|    1.666989|    0.463530|   -0.849062|
+-----------------------------------------------------------------------+
|        File Writing Summary       |              Filename             |
+-----------------------------------------------------------------------+
|SU2 binary restart                 |restart.dat                        |
|Paraview                           |vol_solution.vtu                   |
|Paraview surface                   |surface.vtu                        |
+-----------------------------------------------------------------------+
+--------------------------------------------------------------------------------------------------------------------+
|  Inner_Iter|    rms[Rho]|   rms[RhoU]|   rms[RhoV]|   rms[RhoE]|          CD|          CL|         CMz|   LinSolRes|
+--------------------------------------------------------------------------------------------------------------------+
|        1925|   -9.217043|   -8.405829|   -8.710246|   -8.923876|    0.030083|    1.666722|    0.463439|   -0.791776|
|        1950|   -9.212839|   -8.415474|   -8.717480|   -8.914304|    0.030086|    1.666441|    0.463338|   -0.835028|
|        1975|   -9.242098|   -8.425087|   -8.726517|   -8.949690|    0.030093|    1.666175|    0.463246|   -0.892131|
|        2000|   -9.227238|   -8.434415|   -8.734147|   -8.927448|    0.030098|    1.665905|    0.463150|   -0.696926|
+-----------------------------------------------------------------------+
|        File Writing Summary       |              Filename             |
+-----------------------------------------------------------------------+
|SU2 binary restart                 |restart.dat                        |
|Paraview                           |vol_solution.vtu                   |
|Paraview surface                   |surface.vtu                        |
+-----------------------------------------------------------------------+
+--------------------------------------------------------------------------------------------------------------------+
|  Inner_Iter|    rms[Rho]|   rms[RhoU]|   rms[RhoV]|   rms[RhoE]|          CD|          CL|         CMz|   LinSolRes|
+--------------------------------------------------------------------------------------------------------------------+
|        2025|   -9.252756|   -8.444451|   -8.744071|   -8.962004|    0.030104|    1.665654|    0.463062|   -0.903347|
|        2050|   -9.263757|   -8.453856|   -8.751702|   -8.973296|    0.030107|    1.665387|    0.462966|   -0.773667|
|        2075|   -9.274426|   -8.462829|   -8.759795|   -8.981833|    0.030113|    1.665139|    0.462879|   -0.878644|
|        2100|   -9.256492|   -8.472095|   -8.766468|   -8.956411|    0.030117|    1.664890|    0.462790|   -0.816342|
+-----------------------------------------------------------------------+
|        File Writing Summary       |              Filename             |
+-----------------------------------------------------------------------+
|SU2 binary restart                 |restart.dat                        |
|Paraview                           |vol_solution.vtu                   |
|Paraview surface                   |surface.vtu                        |
+-----------------------------------------------------------------------+
+--------------------------------------------------------------------------------------------------------------------+
|  Inner_Iter|    rms[Rho]|   rms[RhoU]|   rms[RhoV]|   rms[RhoE]|          CD|          CL|         CMz|   LinSolRes|
+--------------------------------------------------------------------------------------------------------------------+
|        2125|   -9.285860|   -8.480787|   -8.775586|   -8.997445|    0.030123|    1.664658|    0.462709|   -0.897962|
|        2150|   -9.297562|   -8.489121|   -8.782222|   -9.008378|    0.030126|    1.664425|    0.462626|   -0.889320|
|        2175|   -9.299386|   -8.497925|   -8.789200|   -9.010760|    0.030131|    1.664198|    0.462545|   -0.900520|
|        2200|   -9.299137|   -8.506049|   -8.795699|   -9.005667|    0.030134|    1.663964|    0.462462|   -0.831715|
+-----------------------------------------------------------------------+
|        File Writing Summary       |              Filename             |
+-----------------------------------------------------------------------+
|SU2 binary restart                 |restart.dat                        |
|Paraview                           |vol_solution.vtu                   |
|Paraview surface                   |surface.vtu                        |
+-----------------------------------------------------------------------+
+--------------------------------------------------------------------------------------------------------------------+
|  Inner_Iter|    rms[Rho]|   rms[RhoU]|   rms[RhoV]|   rms[RhoE]|          CD|          CL|         CMz|   LinSolRes|
+--------------------------------------------------------------------------------------------------------------------+
|        2225|   -9.307618|   -8.514214|   -8.803210|   -9.013391|    0.030140|    1.663745|    0.462384|   -0.833939|
|        2250|   -9.319362|   -8.523330|   -8.811819|   -9.031305|    0.030143|    1.663525|    0.462305|   -0.871339|
|        2275|   -9.336017|   -8.531396|   -8.819207|   -9.050005|    0.030147|    1.663310|    0.462228|   -0.897477|
|        2300|   -9.298638|   -8.539343|   -8.823257|   -8.989386|    0.030150|    1.663094|    0.462151|   -0.750026|
+-----------------------------------------------------------------------+
|        File Writing Summary       |              Filename             |
+-----------------------------------------------------------------------+
|SU2 binary restart                 |restart.dat                        |
|Paraview                           |vol_solution.vtu                   |
|Paraview surface                   |surface.vtu                        |
+-----------------------------------------------------------------------+
+--------------------------------------------------------------------------------------------------------------------+
|  Inner_Iter|    rms[Rho]|   rms[RhoU]|   rms[RhoV]|   rms[RhoE]|          CD|          CL|         CMz|   LinSolRes|
+--------------------------------------------------------------------------------------------------------------------+
|        2325|   -9.342059|   -8.548585|   -8.834420|   -9.055761|    0.030155|    1.662880|    0.462075|   -0.777209|
|        2350|   -9.356122|   -8.556211|   -8.841619|   -9.068253|    0.030159|    1.662677|    0.462003|   -0.855093|
|        2375|   -9.359046|   -8.564422|   -8.848498|   -9.070379|    0.030160|    1.662468|    0.461926|   -0.870930|
|        2400|   -9.367871|   -8.572401|   -8.855797|   -9.081026|    0.030165|    1.662269|    0.461856|   -0.873884|
+-----------------------------------------------------------------------+
|        File Writing Summary       |              Filename             |
+-----------------------------------------------------------------------+
|SU2 binary restart                 |restart.dat                        |
|Paraview                           |vol_solution.vtu                   |
|Paraview surface                   |surface.vtu                        |
+-----------------------------------------------------------------------+
+--------------------------------------------------------------------------------------------------------------------+
|  Inner_Iter|    rms[Rho]|   rms[RhoU]|   rms[RhoV]|   rms[RhoE]|          CD|          CL|         CMz|   LinSolRes|
+--------------------------------------------------------------------------------------------------------------------+
|        2425|   -9.374932|   -8.580126|   -8.862753|   -9.089746|    0.030169|    1.662074|    0.461786|   -0.885354|
|        2450|   -9.373702|   -8.587690|   -8.868023|   -9.082544|    0.030172|    1.661875|    0.461714|   -0.801780|
|        2475|   -9.393461|   -8.595041|   -8.876253|   -9.106991|    0.030175|    1.661687|    0.461646|   -0.876257|
|        2500|   -9.393036|   -8.603221|   -8.883634|   -9.108841|    0.030179|    1.661505|    0.461581|   -0.904801|
+-----------------------------------------------------------------------+
|        File Writing Summary       |              Filename             |
+-----------------------------------------------------------------------+
|SU2 binary restart                 |restart.dat                        |
|Paraview                           |vol_solution.vtu                   |
|Paraview surface                   |surface.vtu                        |
+-----------------------------------------------------------------------+
+--------------------------------------------------------------------------------------------------------------------+
|  Inner_Iter|    rms[Rho]|   rms[RhoU]|   rms[RhoV]|   rms[RhoE]|          CD|          CL|         CMz|   LinSolRes|
+--------------------------------------------------------------------------------------------------------------------+
|        2525|   -9.402620|   -8.610714|   -8.889280|   -9.115576|    0.030180|    1.661308|    0.461509|   -0.847292|
|        2550|   -9.416524|   -8.617573|   -8.896975|   -9.132714|    0.030186|    1.661134|    0.461448|   -0.899805|
|        2575|   -9.410896|   -8.625652|   -8.903899|   -9.125323|    0.030188|    1.660954|    0.461382|   -0.863938|
|        2600|   -9.417186|   -8.632811|   -8.908431|   -9.125344|    0.030190|    1.660775|    0.461317|   -0.815816|
+-----------------------------------------------------------------------+
|        File Writing Summary       |              Filename             |
+-----------------------------------------------------------------------+
|SU2 binary restart                 |restart.dat                        |
|Paraview                           |vol_solution.vtu                   |
|Paraview surface                   |surface.vtu                        |
+-----------------------------------------------------------------------+
+--------------------------------------------------------------------------------------------------------------------+
|  Inner_Iter|    rms[Rho]|   rms[RhoU]|   rms[RhoV]|   rms[RhoE]|          CD|          CL|         CMz|   LinSolRes|
+--------------------------------------------------------------------------------------------------------------------+
|        2625|   -9.422506|   -8.640115|   -8.915761|   -9.134368|    0.030193|    1.660603|    0.461255|   -0.840083|
|        2650|   -9.439728|   -8.647930|   -8.923348|   -9.156875|    0.030196|    1.660428|    0.461192|   -0.884589|
|        2675|   -9.443673|   -8.654274|   -8.929034|   -9.157602|    0.030199|    1.660261|    0.461132|   -0.850759|
|        2700|   -9.448001|   -8.661451|   -8.936370|   -9.166371|    0.030202|    1.660100|    0.461073|   -0.904833|
+-----------------------------------------------------------------------+
|        File Writing Summary       |              Filename             |
+-----------------------------------------------------------------------+
|SU2 binary restart                 |restart.dat                        |
|Paraview                           |vol_solution.vtu                   |
|Paraview surface                   |surface.vtu                        |
+-----------------------------------------------------------------------+
+--------------------------------------------------------------------------------------------------------------------+
|  Inner_Iter|    rms[Rho]|   rms[RhoU]|   rms[RhoV]|   rms[RhoE]|          CD|          CL|         CMz|   LinSolRes|
+--------------------------------------------------------------------------------------------------------------------+
|        2725|   -9.447869|   -8.668809|   -8.939861|   -9.157808|    0.030204|    1.659935|    0.461013|   -0.779310|
|        2750|   -9.465131|   -8.675264|   -8.947662|   -9.182981|    0.030207|    1.659775|    0.460955|   -0.883460|
|        2775|   -9.454363|   -8.681655|   -8.952763|   -9.162769|    0.030209|    1.659613|    0.460896|   -0.686249|
|        2800|   -9.436858|   -8.688532|   -8.956470|   -9.131721|    0.030211|    1.659452|    0.460837|   -0.678169|
+-----------------------------------------------------------------------+
|        File Writing Summary       |              Filename             |
+-----------------------------------------------------------------------+
|SU2 binary restart                 |restart.dat                        |
|Paraview                           |vol_solution.vtu                   |
|Paraview surface                   |surface.vtu                        |
+-----------------------------------------------------------------------+
+--------------------------------------------------------------------------------------------------------------------+
|  Inner_Iter|    rms[Rho]|   rms[RhoU]|   rms[RhoV]|   rms[RhoE]|          CD|          CL|         CMz|   LinSolRes|
+--------------------------------------------------------------------------------------------------------------------+
|        2825|   -9.480919|   -8.696254|   -8.967255|   -9.197676|    0.030215|    1.659301|    0.460783|   -0.862291|
|        2850|   -9.484531|   -8.703095|   -8.972790|   -9.198497|    0.030216|    1.659142|    0.460724|   -0.837135|
|        2875|   -9.485324|   -8.709495|   -8.977783|   -9.197159|    0.030219|    1.658995|    0.460671|   -0.793990|
|        2900|   -9.500610|   -8.716465|   -8.985653|   -9.221775|    0.030222|    1.658850|    0.460618|   -0.906026|
+-----------------------------------------------------------------------+
|        File Writing Summary       |              Filename             |
+-----------------------------------------------------------------------+
|SU2 binary restart                 |restart.dat                        |
|Paraview                           |vol_solution.vtu                   |
|Paraview surface                   |surface.vtu                        |
+-----------------------------------------------------------------------+
+--------------------------------------------------------------------------------------------------------------------+
|  Inner_Iter|    rms[Rho]|   rms[RhoU]|   rms[RhoV]|   rms[RhoE]|          CD|          CL|         CMz|   LinSolRes|
+--------------------------------------------------------------------------------------------------------------------+
|        2925|   -9.502049|   -8.722584|   -8.989485|   -9.215881|    0.030223|    1.658703|    0.460564|   -0.825331|
|        2950|   -9.500070|   -8.728638|   -8.994589|   -9.210310|    0.030225|    1.658554|    0.460509|   -0.697592|
|        2975|   -9.516199|   -8.735354|   -9.002729|   -9.235817|    0.030229|    1.658415|    0.460460|   -0.884112|
|        3000|   -9.524015|   -8.742013|   -9.008774|   -9.243267|    0.030230|    1.658270|    0.460406|   -0.746619|
+-----------------------------------------------------------------------+
|        File Writing Summary       |              Filename             |
+-----------------------------------------------------------------------+
|SU2 binary restart                 |restart.dat                        |
|Paraview                           |vol_solution.vtu                   |
|Paraview surface                   |surface.vtu                        |
+-----------------------------------------------------------------------+
+--------------------------------------------------------------------------------------------------------------------+
|  Inner_Iter|    rms[Rho]|   rms[RhoU]|   rms[RhoV]|   rms[RhoE]|          CD|          CL|         CMz|   LinSolRes|
+--------------------------------------------------------------------------------------------------------------------+
|        3025|   -9.534021|   -8.748363|   -9.015142|   -9.253883|    0.030233|    1.658131|    0.460355|   -0.768360|
|        3050|   -9.528490|   -8.755324|   -9.020760|   -9.242965|    0.030235|    1.657994|    0.460305|   -0.833051|
|        3075|   -9.541019|   -8.761536|   -9.026678|   -9.260192|    0.030237|    1.657860|    0.460256|   -0.871491|
|        3100|   -9.525675|   -8.766816|   -9.029333|   -9.230932|    0.030238|    1.657723|    0.460206|   -0.611451|
+-----------------------------------------------------------------------+
|        File Writing Summary       |              Filename             |
+-----------------------------------------------------------------------+
|SU2 binary restart                 |restart.dat                        |
|Paraview                           |vol_solution.vtu                   |
|Paraview surface                   |surface.vtu                        |
+-----------------------------------------------------------------------+
+--------------------------------------------------------------------------------------------------------------------+
|  Inner_Iter|    rms[Rho]|   rms[RhoU]|   rms[RhoV]|   rms[RhoE]|          CD|          CL|         CMz|   LinSolRes|
+--------------------------------------------------------------------------------------------------------------------+
|        3125|   -9.550391|   -8.773979|   -9.037856|   -9.269004|    0.030241|    1.657591|    0.460158|   -0.866053|
|        3150|   -9.529399|   -8.779586|   -9.041211|   -9.228984|    0.030243|    1.657461|    0.460110|   -0.750196|
|        3175|   -9.557575|   -8.786088|   -9.048732|   -9.274594|    0.030245|    1.657331|    0.460062|   -0.848564|
|        3200|   -9.567690|   -8.792195|   -9.054683|   -9.285148|    0.030247|    1.657203|    0.460015|   -0.833867|
+-----------------------------------------------------------------------+
|        File Writing Summary       |              Filename             |
+-----------------------------------------------------------------------+
|SU2 binary restart                 |restart.dat                        |
|Paraview                           |vol_solution.vtu                   |
|Paraview surface                   |surface.vtu                        |
+-----------------------------------------------------------------------+
+--------------------------------------------------------------------------------------------------------------------+
|  Inner_Iter|    rms[Rho]|   rms[RhoU]|   rms[RhoV]|   rms[RhoE]|          CD|          CL|         CMz|   LinSolRes|
+--------------------------------------------------------------------------------------------------------------------+
|        3225|   -9.571568|   -8.798215|   -9.059562|   -9.287045|    0.030248|    1.657078|    0.459969|   -0.833961|
|        3250|   -9.582749|   -8.804407|   -9.066112|   -9.306038|    0.030250|    1.656955|    0.459924|   -0.790335|
|        3275|   -9.578712|   -8.809971|   -9.069254|   -9.293952|    0.030252|    1.656829|    0.459878|   -0.795608|
|        3300|   -9.602447|   -8.816091|   -9.076798|   -9.326206|    0.030254|    1.656711|    0.459835|   -0.899452|
+-----------------------------------------------------------------------+
|        File Writing Summary       |              Filename             |
+-----------------------------------------------------------------------+
|SU2 binary restart                 |restart.dat                        |
|Paraview                           |vol_solution.vtu                   |
|Paraview surface                   |surface.vtu                        |
+-----------------------------------------------------------------------+
+--------------------------------------------------------------------------------------------------------------------+
|  Inner_Iter|    rms[Rho]|   rms[RhoU]|   rms[RhoV]|   rms[RhoE]|          CD|          CL|         CMz|   LinSolRes|
+--------------------------------------------------------------------------------------------------------------------+
|        3325|   -9.596238|   -8.821932|   -9.082113|   -9.318502|    0.030255|    1.656588|    0.459789|   -0.781956|
|        3350|   -9.611090|   -8.827417|   -9.087888|   -9.335565|    0.030258|    1.656474|    0.459747|   -0.902209|
|        3375|   -9.611592|   -8.833465|   -9.093029|   -9.334400|    0.030259|    1.656356|    0.459703|   -0.891810|
|        3400|   -9.620546|   -8.839267|   -9.098456|   -9.343967|    0.030260|    1.656240|    0.459661|   -0.884939|
+-----------------------------------------------------------------------+
|        File Writing Summary       |              Filename             |
+-----------------------------------------------------------------------+
|SU2 binary restart                 |restart.dat                        |
|Paraview                           |vol_solution.vtu                   |
|Paraview surface                   |surface.vtu                        |
+-----------------------------------------------------------------------+
+--------------------------------------------------------------------------------------------------------------------+
|  Inner_Iter|    rms[Rho]|   rms[RhoU]|   rms[RhoV]|   rms[RhoE]|          CD|          CL|         CMz|   LinSolRes|
+--------------------------------------------------------------------------------------------------------------------+
|        3425|   -9.623126|   -8.844579|   -9.103629|   -9.345066|    0.030262|    1.656124|    0.459618|   -0.875182|
|        3450|   -9.628327|   -8.850910|   -9.109469|   -9.351662|    0.030264|    1.656015|    0.459578|   -0.899289|
|        3475|   -9.630369|   -8.856661|   -9.113894|   -9.351140|    0.030265|    1.655899|    0.459534|   -0.855237|
|        3500|   -9.642420|   -8.861864|   -9.119546|   -9.366080|    0.030267|    1.655793|    0.459496|   -0.887733|
+-----------------------------------------------------------------------+
|        File Writing Summary       |              Filename             |
+-----------------------------------------------------------------------+
|SU2 binary restart                 |restart.dat                        |
|Paraview                           |vol_solution.vtu                   |
|Paraview surface                   |surface.vtu                        |
+-----------------------------------------------------------------------+
+--------------------------------------------------------------------------------------------------------------------+
|  Inner_Iter|    rms[Rho]|   rms[RhoU]|   rms[RhoV]|   rms[RhoE]|          CD|          CL|         CMz|   LinSolRes|
+--------------------------------------------------------------------------------------------------------------------+
|        3525|   -9.638895|   -8.867605|   -9.124635|   -9.361108|    0.030268|    1.655684|    0.459455|   -0.870033|
|        3550|   -9.651554|   -8.872784|   -9.129516|   -9.376330|    0.030270|    1.655579|    0.459416|   -0.892985|
|        3575|   -9.634341|   -8.877417|   -9.131978|   -9.343026|    0.030271|    1.655468|    0.459375|   -0.612792|
|        3600|   -9.651168|   -8.884093|   -9.139818|   -9.368455|    0.030273|    1.655364|    0.459337|   -0.835237|
+-----------------------------------------------------------------------+
|        File Writing Summary       |              Filename             |
+-----------------------------------------------------------------------+
|SU2 binary restart                 |restart.dat                        |
|Paraview                           |vol_solution.vtu                   |
|Paraview surface                   |surface.vtu                        |
+-----------------------------------------------------------------------+
+--------------------------------------------------------------------------------------------------------------------+
|  Inner_Iter|    rms[Rho]|   rms[RhoU]|   rms[RhoV]|   rms[RhoE]|          CD|          CL|         CMz|   LinSolRes|
+--------------------------------------------------------------------------------------------------------------------+
|        3625|   -9.638597|   -8.889248|   -9.144484|   -9.345843|    0.030274|    1.655259|    0.459298|   -0.772915|
|        3650|   -9.671254|   -8.895021|   -9.151563|   -9.395307|    0.030276|    1.655159|    0.459261|   -0.886658|
|        3675|   -9.667176|   -8.900664|   -9.155849|   -9.384879|    0.030277|    1.655058|    0.459224|   -0.703387|
|        3700|   -9.660754|   -8.906116|   -9.159394|   -9.372048|    0.030279|    1.654958|    0.459186|   -0.681677|
+-----------------------------------------------------------------------+
|        File Writing Summary       |              Filename             |
+-----------------------------------------------------------------------+
|SU2 binary restart                 |restart.dat                        |
|Paraview                           |vol_solution.vtu                   |
|Paraview surface                   |surface.vtu                        |
+-----------------------------------------------------------------------+
+--------------------------------------------------------------------------------------------------------------------+
|  Inner_Iter|    rms[Rho]|   rms[RhoU]|   rms[RhoV]|   rms[RhoE]|          CD|          CL|         CMz|   LinSolRes|
+--------------------------------------------------------------------------------------------------------------------+
|        3725|   -9.642885|   -8.910578|   -9.162561|   -9.341961|    0.030280|    1.654858|    0.459150|   -0.675443|
|        3750|   -9.689956|   -8.916995|   -9.172108|   -9.413593|    0.030282|    1.654762|    0.459114|   -0.874338|
|        3775|   -9.687285|   -8.922361|   -9.176232|   -9.402417|    0.030283|    1.654664|    0.459078|   -0.695238|
|        3800|   -9.685019|   -8.927842|   -9.180989|   -9.402261|    0.030285|    1.654569|    0.459043|   -0.586118|
+-----------------------------------------------------------------------+
|        File Writing Summary       |              Filename             |
+-----------------------------------------------------------------------+
|SU2 binary restart                 |restart.dat                        |
|Paraview                           |vol_solution.vtu                   |
|Paraview surface                   |surface.vtu                        |
+-----------------------------------------------------------------------+
+--------------------------------------------------------------------------------------------------------------------+
|  Inner_Iter|    rms[Rho]|   rms[RhoU]|   rms[RhoV]|   rms[RhoE]|          CD|          CL|         CMz|   LinSolRes|
+--------------------------------------------------------------------------------------------------------------------+
|        3825|   -9.698759|   -8.933475|   -9.186857|   -9.418790|    0.030286|    1.654475|    0.459008|   -0.585567|
|        3850|   -9.710748|   -8.938960|   -9.192575|   -9.432515|    0.030287|    1.654380|    0.458972|   -0.853383|
|        3875|   -9.708856|   -8.943902|   -9.197112|   -9.427152|    0.030289|    1.654292|    0.458940|   -0.812572|
|        3900|   -9.716641|   -8.949845|   -9.203144|   -9.442023|    0.030290|    1.654202|    0.458906|   -0.900873|
+-----------------------------------------------------------------------+
|        File Writing Summary       |              Filename             |
+-----------------------------------------------------------------------+
|SU2 binary restart                 |restart.dat                        |
|Paraview                           |vol_solution.vtu                   |
|Paraview surface                   |surface.vtu                        |
+-----------------------------------------------------------------------+
+--------------------------------------------------------------------------------------------------------------------+
|  Inner_Iter|    rms[Rho]|   rms[RhoU]|   rms[RhoV]|   rms[RhoE]|          CD|          CL|         CMz|   LinSolRes|
+--------------------------------------------------------------------------------------------------------------------+
|        3925|   -9.734961|   -8.954988|   -9.207604|   -9.463104|    0.030291|    1.654114|    0.458874|   -0.903780|
|        3950|   -9.707760|   -8.959354|   -9.209566|   -9.416940|    0.030292|    1.654020|    0.458838|   -0.615648|
|        3975|   -9.739964|   -8.965540|   -9.218803|   -9.466586|    0.030294|    1.653937|    0.458808|   -0.899808|
|        4000|   -9.740267|   -8.971354|   -9.224011|   -9.466869|    0.030295|    1.653847|    0.458774|   -0.892563|
+-----------------------------------------------------------------------+
|        File Writing Summary       |              Filename             |
+-----------------------------------------------------------------------+
|SU2 binary restart                 |restart.dat                        |
|Paraview                           |vol_solution.vtu                   |
|Paraview surface                   |surface.vtu                        |
+-----------------------------------------------------------------------+
+--------------------------------------------------------------------------------------------------------------------+
|  Inner_Iter|    rms[Rho]|   rms[RhoU]|   rms[RhoV]|   rms[RhoE]|          CD|          CL|         CMz|   LinSolRes|
+--------------------------------------------------------------------------------------------------------------------+
|        4025|   -9.756830|   -8.976657|   -9.229189|   -9.484503|    0.030296|    1.653763|    0.458743|   -0.899399|
|        4050|   -9.740017|   -8.981840|   -9.232699|   -9.454950|    0.030297|    1.653675|    0.458710|   -0.694208|
|        4075|   -9.752177|   -8.987723|   -9.239611|   -9.478181|    0.030299|    1.653594|    0.458681|   -0.898673|
|        4100|   -9.759813|   -8.991999|   -9.242704|   -9.480433|    0.030300|    1.653512|    0.458650|   -0.798078|
+-----------------------------------------------------------------------+
|        File Writing Summary       |              Filename             |
+-----------------------------------------------------------------------+
|SU2 binary restart                 |restart.dat                        |
|Paraview                           |vol_solution.vtu                   |
|Paraview surface                   |surface.vtu                        |
+-----------------------------------------------------------------------+
+--------------------------------------------------------------------------------------------------------------------+
|  Inner_Iter|    rms[Rho]|   rms[RhoU]|   rms[RhoV]|   rms[RhoE]|          CD|          CL|         CMz|   LinSolRes|
+--------------------------------------------------------------------------------------------------------------------+
|        4125|   -9.769354|   -8.997356|   -9.248346|   -9.495621|    0.030301|    1.653433|    0.458620|   -0.903441|
|        4150|   -9.757657|   -9.002525|   -9.251919|   -9.475395|    0.030302|    1.653351|    0.458590|   -0.778183|
|        4175|   -9.731521|   -9.006292|   -9.252429|   -9.428208|    0.030303|    1.653271|    0.458560|   -0.639672|
|        4200|   -9.780737|   -9.013311|   -9.264774|   -9.505508|    0.030304|    1.653191|    0.458530|   -0.748389|
+-----------------------------------------------------------------------+
|        File Writing Summary       |              Filename             |
+-----------------------------------------------------------------------+
|SU2 binary restart                 |restart.dat                        |
|Paraview                           |vol_solution.vtu                   |
|Paraview surface                   |surface.vtu                        |
+-----------------------------------------------------------------------+
+--------------------------------------------------------------------------------------------------------------------+
|  Inner_Iter|    rms[Rho]|   rms[RhoU]|   rms[RhoV]|   rms[RhoE]|          CD|          CL|         CMz|   LinSolRes|
+--------------------------------------------------------------------------------------------------------------------+
|        4225|   -9.791242|   -9.018928|   -9.270688|   -9.518890|    0.030306|    1.653114|    0.458502|   -0.893889|
|        4250|   -9.771926|   -9.024153|   -9.273910|   -9.481098|    0.030306|    1.653036|    0.458472|   -0.767830|
|        4275|   -9.795920|   -9.030267|   -9.280880|   -9.521826|    0.030308|    1.652960|    0.458444|   -0.890906|
|        4300|   -9.807391|   -9.035197|   -9.286235|   -9.534194|    0.030309|    1.652886|    0.458417|   -0.870325|
+-----------------------------------------------------------------------+
|        File Writing Summary       |              Filename             |
+-----------------------------------------------------------------------+
|SU2 binary restart                 |restart.dat                        |
|Paraview                           |vol_solution.vtu                   |
|Paraview surface                   |surface.vtu                        |
+-----------------------------------------------------------------------+
+--------------------------------------------------------------------------------------------------------------------+
|  Inner_Iter|    rms[Rho]|   rms[RhoU]|   rms[RhoV]|   rms[RhoE]|          CD|          CL|         CMz|   LinSolRes|
+--------------------------------------------------------------------------------------------------------------------+
|        4325|   -9.809123|   -9.040094|   -9.290371|   -9.535176|    0.030309|    1.652812|    0.458389|   -0.889862|
|        4350|   -9.798767|   -9.044943|   -9.293868|   -9.515358|    0.030311|    1.652740|    0.458362|   -0.795457|
|        4375|   -9.818334|   -9.050265|   -9.299825|   -9.544716|    0.030312|    1.652668|    0.458335|   -0.882472|
|        4400|   -9.785916|   -9.055098|   -9.301303|   -9.487951|    0.030312|    1.652594|    0.458307|   -0.676954|
+-----------------------------------------------------------------------+
|        File Writing Summary       |              Filename             |
+-----------------------------------------------------------------------+
|SU2 binary restart                 |restart.dat                        |
|Paraview                           |vol_solution.vtu                   |
|Paraview surface                   |surface.vtu                        |
+-----------------------------------------------------------------------+
+--------------------------------------------------------------------------------------------------------------------+
|  Inner_Iter|    rms[Rho]|   rms[RhoU]|   rms[RhoV]|   rms[RhoE]|          CD|          CL|         CMz|   LinSolRes|
+--------------------------------------------------------------------------------------------------------------------+
|        4425|   -9.830215|   -9.060679|   -9.310997|   -9.556635|    0.030314|    1.652525|    0.458282|   -0.879173|
|        4450|   -9.787161|   -9.065235|   -9.310619|   -9.485911|    0.030315|    1.652455|    0.458256|   -0.635115|
|        4475|   -9.838266|   -9.072255|   -9.321483|   -9.564034|    0.030315|    1.652384|    0.458229|   -0.864112|
|        4500|   -9.831912|   -9.076915|   -9.325153|   -9.546838|    0.030317|    1.652317|    0.458204|   -0.529351|
+-----------------------------------------------------------------------+
|        File Writing Summary       |              Filename             |
+-----------------------------------------------------------------------+
|SU2 binary restart                 |restart.dat                        |
|Paraview                           |vol_solution.vtu                   |
|Paraview surface                   |surface.vtu                        |
+-----------------------------------------------------------------------+
+--------------------------------------------------------------------------------------------------------------------+
|  Inner_Iter|    rms[Rho]|   rms[RhoU]|   rms[RhoV]|   rms[RhoE]|          CD|          CL|         CMz|   LinSolRes|
+--------------------------------------------------------------------------------------------------------------------+
|        4525|   -9.841124|   -9.083046|   -9.332020|   -9.565295|    0.030317|    1.652249|    0.458179|   -0.862499|
|        4550|   -9.862640|   -9.087801|   -9.337413|   -9.592445|    0.030319|    1.652185|    0.458155|   -0.890991|
|        4575|   -9.821350|   -9.092537|   -9.338045|   -9.523643|    0.030319|    1.652115|    0.458128|   -0.679793|
|        4600|   -9.859780|   -9.098598|   -9.346760|   -9.580876|    0.030321|    1.652050|    0.458105|   -0.798327|
+-----------------------------------------------------------------------+
|        File Writing Summary       |              Filename             |
+-----------------------------------------------------------------------+
|SU2 binary restart                 |restart.dat                        |
|Paraview                           |vol_solution.vtu                   |
|Paraview surface                   |surface.vtu                        |
+-----------------------------------------------------------------------+
+--------------------------------------------------------------------------------------------------------------------+
|  Inner_Iter|    rms[Rho]|   rms[RhoU]|   rms[RhoV]|   rms[RhoE]|          CD|          CL|         CMz|   LinSolRes|
+--------------------------------------------------------------------------------------------------------------------+
|        4625|   -9.862471|   -9.103326|   -9.352557|   -9.584336|    0.030321|    1.651987|    0.458081|   -0.828987|
|        4650|   -9.875988|   -9.109041|   -9.358180|   -9.604014|    0.030322|    1.651925|    0.458058|   -0.883462|
|        4675|   -9.862208|   -9.113940|   -9.359993|   -9.575725|    0.030323|    1.651861|    0.458034|   -0.733032|
|        4700|   -9.889321|   -9.119439|   -9.368142|   -9.618503|    0.030324|    1.651801|    0.458011|   -0.781992|
+-----------------------------------------------------------------------+
|        File Writing Summary       |              Filename             |
+-----------------------------------------------------------------------+
|SU2 binary restart                 |restart.dat                        |
|Paraview                           |vol_solution.vtu                   |
|Paraview surface                   |surface.vtu                        |
+-----------------------------------------------------------------------+
+--------------------------------------------------------------------------------------------------------------------+
|  Inner_Iter|    rms[Rho]|   rms[RhoU]|   rms[RhoV]|   rms[RhoE]|          CD|          CL|         CMz|   LinSolRes|
+--------------------------------------------------------------------------------------------------------------------+
|        4725|   -9.889728|   -9.124703|   -9.373462|   -9.618858|    0.030325|    1.651738|    0.457988|   -0.779786|
|        4750|   -9.901224|   -9.129769|   -9.378437|   -9.628680|    0.030326|    1.651679|    0.457966|   -0.865300|
|        4775|   -9.878508|   -9.135416|   -9.381111|   -9.591049|    0.030326|    1.651616|    0.457942|   -0.612495|
|        4800|   -9.909328|   -9.141125|   -9.389573|   -9.637189|    0.030327|    1.651557|    0.457920|   -0.872333|
+-----------------------------------------------------------------------+
|        File Writing Summary       |              Filename             |
+-----------------------------------------------------------------------+
|SU2 binary restart                 |restart.dat                        |
|Paraview                           |vol_solution.vtu                   |
|Paraview surface                   |surface.vtu                        |
+-----------------------------------------------------------------------+
+--------------------------------------------------------------------------------------------------------------------+
|  Inner_Iter|    rms[Rho]|   rms[RhoU]|   rms[RhoV]|   rms[RhoE]|          CD|          CL|         CMz|   LinSolRes|
+--------------------------------------------------------------------------------------------------------------------+
|        4825|   -9.914282|   -9.146241|   -9.395462|   -9.643803|    0.030328|    1.651500|    0.457899|   -0.889139|
|        4850|   -9.911506|   -9.151664|   -9.399045|   -9.635683|    0.030329|    1.651443|    0.457877|   -0.835711|
|        4875|   -9.919905|   -9.156622|   -9.403697|   -9.645457|    0.030330|    1.651386|    0.457856|   -0.845880|
|        4900|   -9.926855|   -9.161994|   -9.409331|   -9.654823|    0.030331|    1.651330|    0.457835|   -0.877312|
+-----------------------------------------------------------------------+
|        File Writing Summary       |              Filename             |
+-----------------------------------------------------------------------+
|SU2 binary restart                 |restart.dat                        |
|Paraview                           |vol_solution.vtu                   |
|Paraview surface                   |surface.vtu                        |
+-----------------------------------------------------------------------+
+--------------------------------------------------------------------------------------------------------------------+
|  Inner_Iter|    rms[Rho]|   rms[RhoU]|   rms[RhoV]|   rms[RhoE]|          CD|          CL|         CMz|   LinSolRes|
+--------------------------------------------------------------------------------------------------------------------+
|        4925|   -9.934646|   -9.166784|   -9.414618|   -9.663774|    0.030331|    1.651274|    0.457814|   -0.873136|
|        4950|   -9.940658|   -9.171548|   -9.420128|   -9.670940|    0.030332|    1.651221|    0.457794|   -0.791578|
|        4975|   -9.931380|   -9.177656|   -9.424445|   -9.651557|    0.030332|    1.651164|    0.457773|   -0.692064|
[...]
|SU2 binary restart                 |restart.dat                        |
|Paraview                           |vol_solution.vtu                   |
|Paraview surface                   |surface.vtu                        |
+-----------------------------------------------------------------------+
+--------------------------------------------------------------------------------------------------------------------+
|  Inner_Iter|    rms[Rho]|   rms[RhoU]|   rms[RhoV]|   rms[RhoE]|          CD|          CL|         CMz|   LinSolRes|
+--------------------------------------------------------------------------------------------------------------------+
|        5925|  -10.101704|   -9.378129|   -9.619831|   -9.808877|    0.030356|    1.649519|    0.457155|   -0.676360|
|        5950|  -10.133362|   -9.383433|   -9.628162|   -9.858444|    0.030357|    1.649484|    0.457142|   -0.780812|
|        5975|  -10.153162|   -9.388689|   -9.635674|   -9.888127|    0.030357|    1.649452|    0.457130|   -0.897381|
|        6000|  -10.047701|   -9.394470|   -9.629739|   -9.720270|    0.030358|    1.649418|    0.457117|   -0.627215|
+-----------------------------------------------------------------------+
|        File Writing Summary       |              Filename             |
+-----------------------------------------------------------------------+
|SU2 binary restart                 |restart.dat                        |
|Paraview                           |vol_solution.vtu                   |
|Paraview surface                   |surface.vtu                        |
+-----------------------------------------------------------------------+
+--------------------------------------------------------------------------------------------------------------------+
|  Inner_Iter|    rms[Rho]|   rms[RhoU]|   rms[RhoV]|   rms[RhoE]|          CD|          CL|         CMz|   LinSolRes|
+--------------------------------------------------------------------------------------------------------------------+
|        6025|  -10.153879|   -9.400963|   -9.643944|   -9.881776|    0.030358|    1.649383|    0.457104|   -0.886671|
|        6050|  -10.136320|   -9.405791|   -9.648127|   -9.843950|    0.030359|    1.649352|    0.457093|   -0.588918|
|        6075|  -10.155981|   -9.411304|   -9.654591|   -9.880640|    0.030359|    1.649320|    0.457080|   -0.895721|
|        6100|  -10.171870|   -9.416104|   -9.659416|   -9.901506|    0.030360|    1.649289|    0.457069|   -0.858767|
+-----------------------------------------------------------------------+
|        File Writing Summary       |              Filename             |
+-----------------------------------------------------------------------+
|SU2 binary restart                 |restart.dat                        |
|Paraview                           |vol_solution.vtu                   |
|Paraview surface                   |surface.vtu                        |
+-----------------------------------------------------------------------+
+--------------------------------------------------------------------------------------------------------------------+
|  Inner_Iter|    rms[Rho]|   rms[RhoU]|   rms[RhoV]|   rms[RhoE]|          CD|          CL|         CMz|   LinSolRes|
+--------------------------------------------------------------------------------------------------------------------+
|        6125|  -10.173442|   -9.421322|   -9.663873|   -9.898236|    0.030360|    1.649257|    0.457056|   -0.694996|
|        6150|  -10.187223|   -9.426832|   -9.670967|   -9.921304|    0.030361|    1.649226|    0.457045|   -0.901896|
|        6175|  -10.196722|   -9.430842|   -9.677019|   -9.937419|    0.030361|    1.649196|    0.457034|   -0.973420|
|        6200|  -10.202844|   -9.436633|   -9.681837|   -9.943646|    0.030361|    1.649167|    0.457023|   -0.953216|
+-----------------------------------------------------------------------+
|        File Writing Summary       |              Filename             |
+-----------------------------------------------------------------------+
|SU2 binary restart                 |restart.dat                        |
|Paraview                           |vol_solution.vtu                   |
|Paraview surface                   |surface.vtu                        |
+-----------------------------------------------------------------------+
+--------------------------------------------------------------------------------------------------------------------+
|  Inner_Iter|    rms[Rho]|   rms[RhoU]|   rms[RhoV]|   rms[RhoE]|          CD|          CL|         CMz|   LinSolRes|
+--------------------------------------------------------------------------------------------------------------------+
|        6225|  -10.179040|   -9.442640|   -9.683280|   -9.895787|    0.030362|    1.649137|    0.457011|   -0.701181|
|        6250|  -10.202548|   -9.447102|   -9.689708|   -9.934679|    0.030362|    1.649107|    0.457000|   -0.908268|
|        6275|  -10.160956|   -9.451909|   -9.692820|   -9.861003|    0.030363|    1.649079|    0.456990|   -0.742897|
|        6300|  -10.216788|   -9.457561|   -9.702094|   -9.952005|    0.030363|    1.649051|    0.456979|   -0.890156|
+-----------------------------------------------------------------------+
|        File Writing Summary       |              Filename             |
+-----------------------------------------------------------------------+
|SU2 binary restart                 |restart.dat                        |
|Paraview                           |vol_solution.vtu                   |
|Paraview surface                   |surface.vtu                        |
+-----------------------------------------------------------------------+
+--------------------------------------------------------------------------------------------------------------------+
|  Inner_Iter|    rms[Rho]|   rms[RhoU]|   rms[RhoV]|   rms[RhoE]|          CD|          CL|         CMz|   LinSolRes|
+--------------------------------------------------------------------------------------------------------------------+
|        6325|  -10.231482|   -9.463287|   -9.708547|   -9.972798|    0.030363|    1.649022|    0.456968|   -0.759824|
|        6350|  -10.195987|   -9.468752|   -9.709759|   -9.905348|    0.030364|    1.648992|    0.456957|   -0.668748|
|        6375|  -10.232675|   -9.474436|   -9.720515|   -9.966849|    0.030364|    1.648965|    0.456947|   -0.878203|
|        6400|  -10.244874|   -9.479914|   -9.726827|   -9.987841|    0.030365|    1.648938|    0.456937|   -0.968880|
+-----------------------------------------------------------------------+
|        File Writing Summary       |              Filename             |
+-----------------------------------------------------------------------+
|SU2 binary restart                 |restart.dat                        |
|Paraview                           |vol_solution.vtu                   |
|Paraview surface                   |surface.vtu                        |
+-----------------------------------------------------------------------+
+--------------------------------------------------------------------------------------------------------------------+
|  Inner_Iter|    rms[Rho]|   rms[RhoU]|   rms[RhoV]|   rms[RhoE]|          CD|          CL|         CMz|   LinSolRes|
+--------------------------------------------------------------------------------------------------------------------+
|        6425|  -10.220152|   -9.484863|   -9.727389|   -9.935278|    0.030365|    1.648912|    0.456927|   -0.842378|
|        6450|  -10.247015|   -9.490201|   -9.734063|   -9.981408|    0.030365|    1.648885|    0.456917|   -0.903871|
|        6475|  -10.250597|   -9.495044|   -9.739223|   -9.984270|    0.030366|    1.648859|    0.456907|   -0.867173|
|        6500|  -10.266827|   -9.499581|   -9.745605|  -10.009465|    0.030366|    1.648834|    0.456897|   -0.958395|
+-----------------------------------------------------------------------+
|        File Writing Summary       |              Filename             |
+-----------------------------------------------------------------------+
|SU2 binary restart                 |restart.dat                        |
|Paraview                           |vol_solution.vtu                   |
|Paraview surface                   |surface.vtu                        |
+-----------------------------------------------------------------------+
+--------------------------------------------------------------------------------------------------------------------+
|  Inner_Iter|    rms[Rho]|   rms[RhoU]|   rms[RhoV]|   rms[RhoE]|          CD|          CL|         CMz|   LinSolRes|
+--------------------------------------------------------------------------------------------------------------------+
|        6525|  -10.239754|   -9.505192|   -9.747297|   -9.957471|    0.030366|    1.648808|    0.456887|   -0.677023|
|        6550|  -10.212328|   -9.510975|   -9.745895|   -9.908935|    0.030367|    1.648782|    0.456878|   -0.523281|
|        6575|  -10.220188|   -9.516701|   -9.757025|   -9.917516|    0.030367|    1.648755|    0.456868|   -0.667803|
|        6600|  -10.285324|   -9.522453|   -9.768829|  -10.023721|    0.030368|    1.648732|    0.456859|   -0.901194|
+-----------------------------------------------------------------------+
|        File Writing Summary       |              Filename             |
+-----------------------------------------------------------------------+
|SU2 binary restart                 |restart.dat                        |
|Paraview                           |vol_solution.vtu                   |
|Paraview surface                   |surface.vtu                        |
+-----------------------------------------------------------------------+
+--------------------------------------------------------------------------------------------------------------------+
|  Inner_Iter|    rms[Rho]|   rms[RhoU]|   rms[RhoV]|   rms[RhoE]|          CD|          CL|         CMz|   LinSolRes|
+--------------------------------------------------------------------------------------------------------------------+
|        6625|  -10.216097|   -9.527787|   -9.767549|   -9.909892|    0.030368|    1.648708|    0.456850|   -0.580308|
|        6650|  -10.293067|   -9.533661|   -9.777652|  -10.030512|    0.030368|    1.648683|    0.456841|   -0.804955|
|        6675|  -10.231838|   -9.538449|   -9.776734|   -9.923401|    0.030369|    1.648658|    0.456831|   -0.574865|
|        6700|  -10.301200|   -9.543790|   -9.789295|  -10.041413|    0.030369|    1.648636|    0.456823|   -0.929862|
+-----------------------------------------------------------------------+
|        File Writing Summary       |              Filename             |
+-----------------------------------------------------------------------+
|SU2 binary restart                 |restart.dat                        |
|Paraview                           |vol_solution.vtu                   |
|Paraview surface                   |surface.vtu                        |
+-----------------------------------------------------------------------+
+--------------------------------------------------------------------------------------------------------------------+
|  Inner_Iter|    rms[Rho]|   rms[RhoU]|   rms[RhoV]|   rms[RhoE]|          CD|          CL|         CMz|   LinSolRes|
+--------------------------------------------------------------------------------------------------------------------+
|        6725|  -10.297091|   -9.548778|   -9.792094|  -10.029022|    0.030369|    1.648613|    0.456814|   -0.837203|
|        6750|  -10.291414|   -9.554118|   -9.795405|  -10.012502|    0.030370|    1.648590|    0.456805|   -0.622843|
|        6775|  -10.249640|   -9.559520|   -9.796656|   -9.941464|    0.030370|    1.648566|    0.456796|   -0.553809|
|        6800|  -10.318220|   -9.564854|   -9.809397|  -10.057619|    0.030370|    1.648544|    0.456788|   -0.839345|
+-----------------------------------------------------------------------+
|        File Writing Summary       |              Filename             |
+-----------------------------------------------------------------------+
|SU2 binary restart                 |restart.dat                        |
|Paraview                           |vol_solution.vtu                   |
|Paraview surface                   |surface.vtu                        |
+-----------------------------------------------------------------------+
+--------------------------------------------------------------------------------------------------------------------+
|  Inner_Iter|    rms[Rho]|   rms[RhoU]|   rms[RhoV]|   rms[RhoE]|          CD|          CL|         CMz|   LinSolRes|
+--------------------------------------------------------------------------------------------------------------------+
|        6825|  -10.330585|   -9.570096|   -9.815236|  -10.072830|    0.030371|    1.648522|    0.456780|   -0.901190|
|        6850|  -10.327844|   -9.575571|   -9.818504|  -10.061936|    0.030371|    1.648501|    0.456772|   -0.842937|
|        6875|  -10.290819|   -9.581154|   -9.821051|   -9.997887|    0.030371|    1.648479|    0.456764|   -0.777786|
|        6900|  -10.335620|   -9.586325|   -9.829541|  -10.070926|    0.030372|    1.648457|    0.456755|   -0.841178|
+-----------------------------------------------------------------------+
|        File Writing Summary       |              Filename             |
+-----------------------------------------------------------------------+
|SU2 binary restart                 |restart.dat                        |
|Paraview                           |vol_solution.vtu                   |
|Paraview surface                   |surface.vtu                        |
+-----------------------------------------------------------------------+
+--------------------------------------------------------------------------------------------------------------------+
|  Inner_Iter|    rms[Rho]|   rms[RhoU]|   rms[RhoV]|   rms[RhoE]|          CD|          CL|         CMz|   LinSolRes|
+--------------------------------------------------------------------------------------------------------------------+
|        6925|  -10.296319|   -9.590620|   -9.830938|   -9.996243|    0.030372|    1.648437|    0.456748|   -0.646260|
|        6950|  -10.336221|   -9.596346|   -9.839594|  -10.067373|    0.030372|    1.648416|    0.456740|   -0.726160|
|        6975|  -10.360271|   -9.602048|   -9.846006|  -10.104008|    0.030373|    1.648396|    0.456732|   -0.889818|
|        7000|  -10.366265|   -9.606966|   -9.850547|  -10.107464|    0.030373|    1.648375|    0.456724|   -0.837455|
+-----------------------------------------------------------------------+
|        File Writing Summary       |              Filename             |
+-----------------------------------------------------------------------+
|SU2 binary restart                 |restart.dat                        |
|Paraview                           |vol_solution.vtu                   |
|Paraview surface                   |surface.vtu                        |
+-----------------------------------------------------------------------+
+--------------------------------------------------------------------------------------------------------------------+
|  Inner_Iter|    rms[Rho]|   rms[RhoU]|   rms[RhoV]|   rms[RhoE]|          CD|          CL|         CMz|   LinSolRes|
+--------------------------------------------------------------------------------------------------------------------+
|        7025|  -10.364682|   -9.611800|   -9.856251|  -10.103967|    0.030373|    1.648356|    0.456717|   -0.869210|
|        7050|  -10.361756|   -9.616936|   -9.860688|  -10.097729|    0.030373|    1.648336|    0.456710|   -0.837320|
|        7075|  -10.371553|   -9.622368|   -9.865177|  -10.105912|    0.030374|    1.648317|    0.456703|   -0.823253|
|        7100|  -10.360765|   -9.627768|   -9.869161|  -10.081818|    0.030374|    1.648297|    0.456695|   -0.612431|
+-----------------------------------------------------------------------+
|        File Writing Summary       |              Filename             |
+-----------------------------------------------------------------------+
|SU2 binary restart                 |restart.dat                        |
|Paraview                           |vol_solution.vtu                   |
|Paraview surface                   |surface.vtu                        |
+-----------------------------------------------------------------------+
+--------------------------------------------------------------------------------------------------------------------+
|  Inner_Iter|    rms[Rho]|   rms[RhoU]|   rms[RhoV]|   rms[RhoE]|          CD|          CL|         CMz|   LinSolRes|
+--------------------------------------------------------------------------------------------------------------------+
|        7125|  -10.374966|   -9.632944|   -9.876823|  -10.110538|    0.030374|    1.648279|    0.456688|   -0.834976|
|        7150|  -10.384934|   -9.637934|   -9.881739|  -10.119314|    0.030375|    1.648260|    0.456681|   -0.814727|
|        7175|  -10.361336|   -9.643211|   -9.882172|  -10.073596|    0.030375|    1.648241|    0.456674|   -0.567242|
|        7200|  -10.395827|   -9.649119|   -9.892837|  -10.132414|    0.030375|    1.648223|    0.456667|   -0.830624|
+-----------------------------------------------------------------------+
|        File Writing Summary       |              Filename             |
+-----------------------------------------------------------------------+
|SU2 binary restart                 |restart.dat                        |
|Paraview                           |vol_solution.vtu                   |
|Paraview surface                   |surface.vtu                        |
+-----------------------------------------------------------------------+
+--------------------------------------------------------------------------------------------------------------------+
|  Inner_Iter|    rms[Rho]|   rms[RhoU]|   rms[RhoV]|   rms[RhoE]|          CD|          CL|         CMz|   LinSolRes|
+--------------------------------------------------------------------------------------------------------------------+
|        7204|  -10.356575|   -9.649573|   -9.888243|  -10.062492|    0.030375|    1.648220|    0.456666|   -0.580074|

----------------------------- Solver Exit -------------------------------
All convergence criteria satisfied.
+-----------------------------------------------------------------------+
|      Convergence Field     |     Value    |   Criterion  |  Converged |
+-----------------------------------------------------------------------+
|                  Cauchy[CL]|   4.99834e-07|       < 5e-07|         Yes|
+-----------------------------------------------------------------------+
-------------------------------------------------------------------------
+-----------------------------------------------------------------------+
|        File Writing Summary       |              Filename             |
+-----------------------------------------------------------------------+
|SU2 binary restart                 |restart.dat                        |
|Paraview                           |vol_solution.vtu                   |
|Paraview surface                   |surface.vtu                        |
+-----------------------------------------------------------------------+

------------------------- Solver Postprocessing -------------------------
Deleted CNumerics container.
Deleted CIntegration container.
Deleted CSolver container.
Deleted CIteration container.
Deleted CInterface container.
Deleted CGeometry container.
Deleted CFreeFormDefBox class.
Deleted CSurfaceMovement class.
Deleted CVolumetricMovement class.
Deleted CConfig container.
Deleted nInst container.
Deleted COutput class.
-------------------------------------------------------------------------

------------------------- Exit Success (SU2_CFD) ------------------------

