WARNING: The current SST-1994m model is inconsistent with literature. We recommend using the SST-2003m model.
In SU2 v8 the 2003m model will become default, and the inconsistency will be fixed.

-------------------------------------------------------------------------
|    ___ _   _ ___                                                      |
|   / __| | | |_  )   Release 7.4.0 "Blackbird"                         |
|   \__ \ |_| |/ /                                                      |
|   |___/\___//___|   Suite (Computational Fluid Dynamics Code)         |
|                                                                       |
-------------------------------------------------------------------------
| SU2 Project Website: https://su2code.github.io                        |
|                                                                       |
| The SU2 Project is maintained by the SU2 Foundation                   |
| (http://su2foundation.org)                                            |
-------------------------------------------------------------------------
| Copyright 2012-2022, SU2 Contributors                                 |
|                                                                       |
| SU2 is free software; you can redistribute it and/or                  |
| modify it under the terms of the GNU Lesser General Public            |
| License as published by the Free Software Foundation; either          |
| version 2.1 of the License, or (at your option) any later version.    |
|                                                                       |
| SU2 is distributed in the hope that it will be useful,                |
| but WITHOUT ANY WARRANTY; without even the implied warranty of        |
| MERCHANTABILITY or FITNESS FOR A PARTICULAR PURPOSE. See the GNU      |
| Lesser General Public License for more details.                       |
|                                                                       |
| You should have received a copy of the GNU Lesser General Public      |
| License along with SU2. If not, see <http://www.gnu.org/licenses/>.   |
-------------------------------------------------------------------------
WARNING: The current SST-1994m model is inconsistent with literature. We recommend using the SST-2003m model.
In SU2 v8 the 2003m model will become default, and the inconsistency will be fixed.

Parsing config file for zone 0
WARNING: The current SST-1994m model is inconsistent with literature. We recommend using the SST-2003m model.
In SU2 v8 the 2003m model will become default, and the inconsistency will be fixed.

----------------- Physical Case Definition ( Zone 0 ) -------------------
Compressible RANS equations.
Turbulence model: Menter's k-omega SST-1994m with no production modification.
Hybrid RANS/LES: No Hybrid RANS/LES
Mach number: 0.2.
Angle of attack (AoA): 11 deg, and angle of sideslip (AoS): 0 deg.
Reynolds number: 1.22082e+07. Reference length 2.62.
Reading and writing binary SU2 native restart files.
Read flow solution from: solution_flow.
Non-Dimensional simulation (V=Mach, Rho=1.0, T=1.0 at the farfield).
The reference area is 2.62 m^2.
The semi-span will be computed using the max y(3D) value.
The reference length is 2.62 m.
Reference origin for moment evaluation is (0, 0, 0).
Surface(s) where the force coefficients are evaluated: wall.

Surface(s) plotted in the output file: wall.
Input mesh file name: su2meshEx.su2

--------------- Space Numerical Integration ( Zone 0 ) ------------------
Roe (with entropy fix = 1e-05) solver for the flow inviscid terms.
Standard Roe without low-dissipation function.
Second order integration in space, with slope limiter.
Van Albada slope-limiting method implemented by edges.
Scalar upwind solver for the turbulence model.
First order integration in space.
Average of gradients with correction (viscous flow terms).
Average of gradients with correction (viscous turbulence terms).
Gradient for upwind reconstruction: Green-Gauss.
Gradient for viscous and source terms: Green-Gauss.

--------------- Time Numerical Integration  ( Zone 0 ) ------------------
Local time stepping (steady state simulation).
Euler implicit method for the flow equations.
FGMRES is used for solving the linear system.
Using a ILU(0) preconditioning.
Convergence criteria of the linear solver: 0.2.
Max number of linear iterations: 4.
CFL adaptation. Factor down: 0.1, factor up: 1.2,
                lower limit: 25, upper limit: 1000,
                acceptable linear residual: 0.001.
Courant-Friedrichs-Lewy number:       25
Euler implicit time integration for the turbulence model.

------------------ Convergence Criteria  ( Zone 0 ) ---------------------
Maximum number of solver subiterations: 25000.
Begin convergence monitoring at iteration 10.
Residual minimum value: 1e-11.5.
Cauchy series min. value: 5e-07.
Number of Cauchy elements: 500.
Begin windowed time average at iteration 0.

-------------------- Output Information ( Zone 0 ) ----------------------
File writing frequency: 
+------------------------------------+
|                     File| Frequency|
+------------------------------------+
|                  RESTART|       100|
|                 PARAVIEW|       100|
|         SURFACE_PARAVIEW|       100|
+------------------------------------+
Writing the convergence history file every 1 inner iterations.
Writing the screen convergence history every 25 inner iterations.
The tabular file format is CSV (.csv).
Convergence history file name: history.
Forces breakdown file name: forces_breakdown.dat.
Surface file name: surface.
Volume file name: vol_solution.
Restart file name: restart.dat.

------------- Config File Boundary Information ( Zone 0 ) ---------------
+-----------------------------------------------------------------------+
|                        Marker Type|                        Marker Name|
+-----------------------------------------------------------------------+
|                          Far-field|                          far-field|
+-----------------------------------------------------------------------+
|                     Heat flux wall|                               wall|
+-----------------------------------------------------------------------+

-------------------- Output Preprocessing ( Zone 0 ) --------------------

WARNING: SURFACE_PRESSURE_DROP can only be computed for at least 2 surfaces (outlet, inlet, ...)

  Info: Ignoring the following screen output fields:
  RMS_NU_TILDE
Screen output fields: INNER_ITER, RMS_DENSITY, RMS_MOMENTUM-X, RMS_MOMENTUM-Y, RMS_ENERGY, DRAG, LIFT, MOMENT_Z, LINSOL_RESIDUAL
History output group(s): ITER, RMS_RES, AERO_COEFF
Convergence field(s): LIFT
Warning: No (valid) fields chosen for time convergence monitoring. Time convergence monitoring inactive.
Volume output fields: COORDINATES, SOLUTION, PRIMITIVE

------------------- Geometry Preprocessing ( Zone 0 ) -------------------
Two dimensional problem.
82001 grid points before partitioning.
110096 volume elements before partitioning.
2 surface markers.
76 boundary elements in index 0 (Marker = far-field).
723 boundary elements in index 1 (Marker = wall).
Executing the partitioning functions.
Building the graph adjacency structure.
Calling ParMETIS... graph partitioning complete (1791 edge cuts).
Distributing ParMETIS coloring.
Rebalancing vertices.
Rebalancing volume element connectivity.
Rebalancing markers and surface elements.
84501 vertices including ghost points. 
111887 interior elements including halo cells. 
58082 triangles.
53805 quadrilaterals.
Establishing MPI communication patterns.
Setting point connectivity.
Renumbering points (Reverse Cuthill McKee Ordering).
Recomputing point connectivity.
Setting element connectivity.
Checking the numerical grid orientation.
All volume elements are correctly orientend.
All surface elements are correctly orientend.
Identifying edges and vertices.
Setting the control volume structure.
Area of the computational grid: 98853.7.
Searching for the closest normal neighbors to the surfaces.
Storing a mapping from global to local point index.
Compute the surface curvature.
Max K: 1170.36. Mean K: 8.52212. Standard deviation K: 78.5888.
Checking for periodicity.
Computing mesh quality statistics for the dual control volumes.
+--------------------------------------------------------------+
|           Mesh Quality Metric|        Minimum|        Maximum|
+--------------------------------------------------------------+
|    Orthogonality Angle (deg.)|        60.5564|             90|
|     CV Face Area Aspect Ratio|        1.00119|        10426.8|
|           CV Sub-Volume Ratio|              1|        5.72924|
+--------------------------------------------------------------+
Finding max control volume width.
Communicating number of neighbors.
Wetted area = 6.32542 m.
Area projection in the x-plane = 0.630114 m, y-plane = 2.96262 m.
Max. coordinate in the x-direction = 2.9339 m, y-direction = 0.165086 m.
Min. coordinate in the x-direction = 0 m, y-direction = -0.309055 m.
Computing wall distances.

-------------------- Solver Preprocessing ( Zone 0 ) --------------------
Viscous flow: Computing pressure using the ideal gas law
based on the free-stream temperature and a density computed
from the Reynolds number.
Force coefficients computed using free-stream values.

-- Models:
+------------------------------------------------------------------------------+
|          Viscosity Model|        Conductivity Model|              Fluid Model|
+------------------------------------------------------------------------------+
|               SUTHERLAND|          CONSTANT_PRANDTL|             STANDARD_AIR|
+------------------------------------------------------------------------------+
-- Fluid properties:
+------------------------------------------------------------------------------+
|                  Name|    Dim. value|    Ref. value|      Unit|Non-dim. value|
+------------------------------------------------------------------------------+
|        Ref. Viscosity|     1.716e-05|       416.883|   N.s/m^2|   4.11626e-08|
|      Sutherland Temp.|        273.15|        288.16|         K|      0.947911|
|     Sutherland Const.|         110.4|        288.16|         K|       0.38312|
+------------------------------------------------------------------------------+
|        Prandtl (Lam.)|             -|             -|         -|          0.72|
|       Prandtl (Turb.)|             -|             -|         -|           0.9|
+------------------------------------------------------------------------------+
|          Gas Constant|       287.058|       401.881|  N.m/kg.K|      0.714286|
|      Spec. Heat Ratio|             -|             -|         -|           1.4|
+------------------------------------------------------------------------------+
-- Initial and free-stream conditions:
+------------------------------------------------------------------------------+
|                  Name|    Dim. value|    Ref. value|      Unit|Non-dim. value|
+------------------------------------------------------------------------------+
|       Static Pressure|        101333|        141867|        Pa|      0.714286|
|               Density|       1.22504|       1.22504|    kg/m^3|             1|
|           Temperature|        288.16|        288.16|         K|             1|
|          Total Energy|        209130|        115806|   m^2/s^2|       1.80586|
|            Velocity-X|       66.8101|       340.303|       m/s|      0.196325|
|            Velocity-Y|       12.9866|       340.303|       m/s|     0.0381618|
|    Velocity Magnitude|       68.0606|       340.303|       m/s|           0.2|
+------------------------------------------------------------------------------+
|             Viscosity|   1.78935e-05|       416.883|   N.s/m^2|    4.2922e-08|
|          Conductivity|             -|        167537|   W/m^2.K|             -|
|     Turb. Kin. Energy|       17.3709|        115806|   m^2/s^2|       0.00015|
|     Spec. Dissipation|        118926|       340.303|       1/s|       349.471|
+------------------------------------------------------------------------------+
|           Mach Number|             -|             -|         -|           0.2|
|       Reynolds Number|             -|             -|         -|   1.22082e+07|
+------------------------------------------------------------------------------+
Initialize Jacobian structure (Navier-Stokes). MG level: 0.
Initialize Jacobian structure (SST model).

------------------- Numerics Preprocessing ( Zone 0 ) -------------------

----------------- Integration Preprocessing ( Zone 0 ) ------------------

------------------- Iteration Preprocessing ( Zone 0 ) ------------------
Euler/Navier-Stokes/RANS fluid iteration.

------------------------------ Begin Solver -----------------------------

Simulation Run using the Single-zone Driver
WARNING: SU2 was not compiled for an AVX-capable architecture.
+--------------------------------------------------------------------------------------------------------------------+
|  Inner_Iter|    rms[Rho]|   rms[RhoU]|   rms[RhoV]|   rms[RhoE]|          CD|          CL|         CMz|   LinSolRes|
+--------------------------------------------------------------------------------------------------------------------+
|           0|   -3.211581|   -3.744414|   -3.204495|   -2.809617|    0.339406|    2.713582|    1.144843|   -0.990431|
|          25|   -5.874056|   -5.081796|   -5.202413|   -5.417801|    0.373363|    2.832946|    1.222701|   -0.692640|
|          50|   -6.485256|   -5.525312|   -5.910936|   -5.951023|    0.390853|    2.968055|    1.295325|   -0.644810|
|          75|   -6.583827|   -5.790164|   -6.112850|   -6.162161|    0.418185|    3.020472|    1.358107|   -0.637876|
|         100|   -6.602889|   -5.931349|   -6.191711|   -6.274945|    0.459136|    3.066666|    1.431138|   -0.673507|
+-----------------------------------------------------------------------+
|        File Writing Summary       |              Filename             |
+-----------------------------------------------------------------------+
|SU2 binary restart                 |restart.dat                        |
|Paraview                           |vol_solution.vtu                   |
|Paraview surface                   |surface.vtu                        |
+-----------------------------------------------------------------------+
+--------------------------------------------------------------------------------------------------------------------+
|  Inner_Iter|    rms[Rho]|   rms[RhoU]|   rms[RhoV]|   rms[RhoE]|          CD|          CL|         CMz|   LinSolRes|
+--------------------------------------------------------------------------------------------------------------------+
|         125|   -6.545925|   -5.889252|   -6.155813|   -6.222412|    0.497304|    3.096005|    1.509050|   -0.675325|
|         150|   -6.453088|   -5.762278|   -6.028748|   -6.134018|    0.540967|    3.078268|    1.575769|   -0.776656|
|         175|   -6.288599|   -5.589930|   -5.828737|   -5.951526|    0.564518|    2.917391|    1.554010|   -0.649338|
|         200|   -6.042976|   -5.301815|   -5.517011|   -5.691945|    0.496344|    2.397686|    1.302226|   -0.579907|
+-----------------------------------------------------------------------+
|        File Writing Summary       |              Filename             |
+-----------------------------------------------------------------------+
|SU2 binary restart                 |restart.dat                        |
|Paraview                           |vol_solution.vtu                   |
|Paraview surface                   |surface.vtu                        |
+-----------------------------------------------------------------------+
+--------------------------------------------------------------------------------------------------------------------+
|  Inner_Iter|    rms[Rho]|   rms[RhoU]|   rms[RhoV]|   rms[RhoE]|          CD|          CL|         CMz|   LinSolRes|
+--------------------------------------------------------------------------------------------------------------------+
|         225|   -5.766187|   -4.990048|   -5.204359|   -5.388393|    0.318232|    1.557490|    0.834855|   -0.693458|
|         250|   -5.596110|   -4.824723|   -5.043653|   -5.205094|    0.280604|    1.038516|    0.637352|   -0.608912|
|         275|   -5.562600|   -4.814596|   -4.941122|   -5.139726|    0.353346|    1.173716|    0.789047|   -0.864077|
|         300|   -5.159378|   -4.569265|   -4.630870|   -4.772201|    0.439973|    1.347829|    0.926671|   -0.572699|
+-----------------------------------------------------------------------+
|        File Writing Summary       |              Filename             |
+-----------------------------------------------------------------------+
|SU2 binary restart                 |restart.dat                        |
|Paraview                           |vol_solution.vtu                   |
|Paraview surface                   |surface.vtu                        |
+-----------------------------------------------------------------------+
+--------------------------------------------------------------------------------------------------------------------+
|  Inner_Iter|    rms[Rho]|   rms[RhoU]|   rms[RhoV]|   rms[RhoE]|          CD|          CL|         CMz|   LinSolRes|
+--------------------------------------------------------------------------------------------------------------------+
|         325|   -5.045327|   -4.360838|   -4.497287|   -4.643059|    0.095841|    0.287708|    0.133696|   -0.513165|
|         350|   -4.761846|   -4.280699|   -4.457080|   -4.353007|    0.456064|    1.313378|    0.898396|   -0.654230|
|         375|   -5.186299|   -4.546615|   -4.644767|   -4.777815|    0.234575|    0.936102|    0.491971|   -0.783852|
|         400|   -5.419657|   -4.756214|   -4.870032|   -4.960617|    0.350310|    1.274057|    0.758977|   -0.702169|
+-----------------------------------------------------------------------+
|        File Writing Summary       |              Filename             |
+-----------------------------------------------------------------------+
|SU2 binary restart                 |restart.dat                        |
|Paraview                           |vol_solution.vtu                   |
|Paraview surface                   |surface.vtu                        |
+-----------------------------------------------------------------------+
+--------------------------------------------------------------------------------------------------------------------+
|  Inner_Iter|    rms[Rho]|   rms[RhoU]|   rms[RhoV]|   rms[RhoE]|          CD|          CL|         CMz|   LinSolRes|
+--------------------------------------------------------------------------------------------------------------------+
|         425|   -5.892192|   -5.295121|   -5.385894|   -5.451809|    0.295666|    1.233498|    0.624426|   -0.665933|
|         450|   -6.209303|   -5.424682|   -5.667560|   -5.820645|    0.322363|    1.412671|    0.743874|   -0.696670|
|         475|   -6.202851|   -5.574593|   -5.747584|   -5.800839|    0.317134|    1.443594|    0.745515|   -0.600951|
|         500|   -6.281750|   -5.625022|   -5.786473|   -5.906050|    0.296767|    1.363501|    0.669738|   -0.635996|
+-----------------------------------------------------------------------+
|        File Writing Summary       |              Filename             |
+-----------------------------------------------------------------------+
|SU2 binary restart                 |restart.dat                        |
|Paraview                           |vol_solution.vtu                   |
|Paraview surface                   |surface.vtu                        |
+-----------------------------------------------------------------------+
+--------------------------------------------------------------------------------------------------------------------+
|  Inner_Iter|    rms[Rho]|   rms[RhoU]|   rms[RhoV]|   rms[RhoE]|          CD|          CL|         CMz|   LinSolRes|
+--------------------------------------------------------------------------------------------------------------------+
|         525|   -6.274558|   -5.540104|   -5.712876|   -5.869232|    0.333075|    1.549592|    0.811743|   -0.612760|
|         550|   -6.294866|   -5.534442|   -5.698573|   -5.863571|    0.311773|    1.459395|    0.720505|   -0.873809|
|         575|   -6.516187|   -5.696375|   -5.890153|   -6.087133|    0.341233|    1.562883|    0.806690|   -0.602890|
|         600|   -6.624964|   -5.949202|   -6.145527|   -6.224719|    0.339068|    1.591785|    0.815625|   -0.728578|
+-----------------------------------------------------------------------+
|        File Writing Summary       |              Filename             |
+-----------------------------------------------------------------------+
|SU2 binary restart                 |restart.dat                        |
|Paraview                           |vol_solution.vtu                   |
|Paraview surface                   |surface.vtu                        |
+-----------------------------------------------------------------------+
+--------------------------------------------------------------------------------------------------------------------+
|  Inner_Iter|    rms[Rho]|   rms[RhoU]|   rms[RhoV]|   rms[RhoE]|          CD|          CL|         CMz|   LinSolRes|
+--------------------------------------------------------------------------------------------------------------------+
|         625|   -6.711646|   -6.035121|   -6.290519|   -6.356158|    0.359465|    1.600545|    0.832527|   -0.688302|
|         650|   -6.655977|   -6.005024|   -6.253203|   -6.319679|    0.368438|    1.646620|    0.880725|   -0.632406|
|         675|   -6.642170|   -5.910821|   -6.186534|   -6.333535|    0.356864|    1.525215|    0.809471|   -0.622360|
|         700|   -6.500180|   -5.806358|   -6.007872|   -6.135812|    0.348306|    1.464952|    0.797010|   -0.710072|
+-----------------------------------------------------------------------+
|        File Writing Summary       |              Filename             |
+-----------------------------------------------------------------------+
|SU2 binary restart                 |restart.dat                        |
|Paraview                           |vol_solution.vtu                   |
|Paraview surface                   |surface.vtu                        |
+-----------------------------------------------------------------------+
+--------------------------------------------------------------------------------------------------------------------+
|  Inner_Iter|    rms[Rho]|   rms[RhoU]|   rms[RhoV]|   rms[RhoE]|          CD|          CL|         CMz|   LinSolRes|
+--------------------------------------------------------------------------------------------------------------------+
|         725|   -6.583697|   -5.857118|   -6.045280|   -6.252406|    0.340969|    1.379915|    0.760883|   -0.683621|
|         750|   -6.746495|   -5.937580|   -6.272481|   -6.356948|    0.332017|    1.286165|    0.719307|   -0.618368|
|         775|   -6.705082|   -5.974573|   -6.168322|   -6.365739|    0.336094|    1.270561|    0.729712|   -0.756356|
|         800|   -6.589796|   -5.771709|   -5.957705|   -6.213975|    0.324953|    1.211135|    0.689419|   -0.669899|
+-----------------------------------------------------------------------+
|        File Writing Summary       |              Filename             |
+-----------------------------------------------------------------------+
|SU2 binary restart                 |restart.dat                        |
|Paraview                           |vol_solution.vtu                   |
|Paraview surface                   |surface.vtu                        |
+-----------------------------------------------------------------------+
+--------------------------------------------------------------------------------------------------------------------+
|  Inner_Iter|    rms[Rho]|   rms[RhoU]|   rms[RhoV]|   rms[RhoE]|          CD|          CL|         CMz|   LinSolRes|
+--------------------------------------------------------------------------------------------------------------------+
|         825|   -6.443934|   -5.631704|   -5.821306|   -6.060774|    0.313425|    1.160015|    0.663728|   -0.627076|
|         850|   -6.328553|   -5.554468|   -5.718640|   -5.932407|    0.336750|    1.242839|    0.720702|   -0.665023|
|         875|   -6.278435|   -5.571814|   -5.708971|   -5.859707|    0.307536|    1.166110|    0.654181|   -0.724258|
|         900|   -6.367741|   -5.600144|   -5.759653|   -5.943006|    0.330156|    1.246761|    0.710522|   -0.673749|
+-----------------------------------------------------------------------+
|        File Writing Summary       |              Filename             |
+-----------------------------------------------------------------------+
|SU2 binary restart                 |restart.dat                        |
|Paraview                           |vol_solution.vtu                   |
|Paraview surface                   |surface.vtu                        |
+-----------------------------------------------------------------------+
+--------------------------------------------------------------------------------------------------------------------+
|  Inner_Iter|    rms[Rho]|   rms[RhoU]|   rms[RhoV]|   rms[RhoE]|          CD|          CL|         CMz|   LinSolRes|
+--------------------------------------------------------------------------------------------------------------------+
|         925|   -6.468371|   -5.694468|   -5.858042|   -6.043930|    0.305897|    1.217529|    0.669324|   -0.587696|
|         950|   -6.514681|   -5.802266|   -5.993487|   -6.100373|    0.329275|    1.293186|    0.718600|   -0.636539|
|         975|   -6.668252|   -6.045015|   -6.152851|   -6.280225|    0.313131|    1.304109|    0.703752|   -0.696026|
|        1000|   -6.935930|   -6.127855|   -6.356979|   -6.546634|    0.322409|    1.340487|    0.722377|   -0.692799|
+-----------------------------------------------------------------------+
|        File Writing Summary       |              Filename             |
+-----------------------------------------------------------------------+
|SU2 binary restart                 |restart.dat                        |
|Paraview                           |vol_solution.vtu                   |
|Paraview surface                   |surface.vtu                        |
+-----------------------------------------------------------------------+
+--------------------------------------------------------------------------------------------------------------------+
|  Inner_Iter|    rms[Rho]|   rms[RhoU]|   rms[RhoV]|   rms[RhoE]|          CD|          CL|         CMz|   LinSolRes|
+--------------------------------------------------------------------------------------------------------------------+
|        1025|   -6.846415|   -6.058018|   -6.285955|   -6.461712|    0.324643|    1.395130|    0.745476|   -0.579923|
|        1050|   -6.757483|   -6.078475|   -6.234258|   -6.365215|    0.318761|    1.388782|    0.732335|   -0.804250|
|        1075|   -6.922875|   -6.138059|   -6.351160|   -6.486074|    0.329257|    1.446275|    0.764990|   -0.677139|
|        1100|   -6.968823|   -6.202935|   -6.410810|   -6.566082|    0.326479|    1.454978|    0.764350|   -0.601495|
+-----------------------------------------------------------------------+
|        File Writing Summary       |              Filename             |
+-----------------------------------------------------------------------+
|SU2 binary restart                 |restart.dat                        |
|Paraview                           |vol_solution.vtu                   |
|Paraview surface                   |surface.vtu                        |
+-----------------------------------------------------------------------+
+--------------------------------------------------------------------------------------------------------------------+
|  Inner_Iter|    rms[Rho]|   rms[RhoU]|   rms[RhoV]|   rms[RhoE]|          CD|          CL|         CMz|   LinSolRes|
+--------------------------------------------------------------------------------------------------------------------+
|        1125|   -7.148648|   -6.307862|   -6.526012|   -6.794626|    0.330678|    1.470415|    0.772532|   -0.590666|
|        1150|   -7.130045|   -6.375245|   -6.584876|   -6.736167|    0.335051|    1.494232|    0.788286|   -0.629627|
|        1175|   -7.074185|   -6.384751|   -6.581044|   -6.686800|    0.333938|    1.485326|    0.782133|   -0.824367|
|        1200|   -7.210291|   -6.423822|   -6.628767|   -6.793157|    0.337970|    1.489738|    0.790794|   -0.546325|
+-----------------------------------------------------------------------+
|        File Writing Summary       |              Filename             |
+-----------------------------------------------------------------------+
|SU2 binary restart                 |restart.dat                        |
|Paraview                           |vol_solution.vtu                   |
|Paraview surface                   |surface.vtu                        |
+-----------------------------------------------------------------------+
+--------------------------------------------------------------------------------------------------------------------+
|  Inner_Iter|    rms[Rho]|   rms[RhoU]|   rms[RhoV]|   rms[RhoE]|          CD|          CL|         CMz|   LinSolRes|
+--------------------------------------------------------------------------------------------------------------------+
|        1225|   -7.287391|   -6.494230|   -6.771682|   -6.933429|    0.337057|    1.476185|    0.785895|   -0.666798|
|        1250|   -7.162150|   -6.428100|   -6.668893|   -6.794582|    0.336964|    1.454247|    0.779060|   -0.611936|
|        1275|   -7.179561|   -6.462207|   -6.615812|   -6.819635|    0.338868|    1.446707|    0.781298|   -0.639276|
|        1300|   -7.228755|   -6.369083|   -6.676649|   -6.847617|    0.334273|    1.413446|    0.764709|   -0.718403|
+-----------------------------------------------------------------------+
|        File Writing Summary       |              Filename             |
+-----------------------------------------------------------------------+
|SU2 binary restart                 |restart.dat                        |
|Paraview                           |vol_solution.vtu                   |
|Paraview surface                   |surface.vtu                        |
+-----------------------------------------------------------------------+
+--------------------------------------------------------------------------------------------------------------------+
|  Inner_Iter|    rms[Rho]|   rms[RhoU]|   rms[RhoV]|   rms[RhoE]|          CD|          CL|         CMz|   LinSolRes|
+--------------------------------------------------------------------------------------------------------------------+
|        1325|   -7.143627|   -6.359709|   -6.572081|   -6.777085|    0.333377|    1.389030|    0.756747|   -0.682924|
|        1350|   -7.164890|   -6.410609|   -6.596000|   -6.833473|    0.333268|    1.377318|    0.754305|   -0.796019|
|        1375|   -7.217846|   -6.391515|   -6.691656|   -6.814539|    0.327606|    1.345022|    0.736289|   -0.692932|
|        1400|   -7.197618|   -6.432838|   -6.664828|   -6.832648|    0.328761|    1.337048|    0.736081|   -0.745313|
+-----------------------------------------------------------------------+
|        File Writing Summary       |              Filename             |
+-----------------------------------------------------------------------+
|SU2 binary restart                 |restart.dat                        |
|Paraview                           |vol_solution.vtu                   |
|Paraview surface                   |surface.vtu                        |
+-----------------------------------------------------------------------+
+--------------------------------------------------------------------------------------------------------------------+
|  Inner_Iter|    rms[Rho]|   rms[RhoU]|   rms[RhoV]|   rms[RhoE]|          CD|          CL|         CMz|   LinSolRes|
+--------------------------------------------------------------------------------------------------------------------+
|        1425|   -7.239622|   -6.420401|   -6.669230|   -6.861596|    0.327399|    1.331744|    0.732956|   -0.734435|
|        1450|   -7.202175|   -6.547115|   -6.741687|   -6.819587|    0.324314|    1.317550|    0.723588|   -0.716431|
|        1475|   -7.250689|   -6.548410|   -6.768841|   -6.867006|    0.325929|    1.328812|    0.729880|   -0.771735|
|        1500|   -7.314494|   -6.612641|   -6.797930|   -6.907860|    0.323660|    1.328528|    0.725963|   -0.690648|
+-----------------------------------------------------------------------+
|        File Writing Summary       |              Filename             |
+-----------------------------------------------------------------------+
|SU2 binary restart                 |restart.dat                        |
|Paraview                           |vol_solution.vtu                   |
|Paraview surface                   |surface.vtu                        |
+-----------------------------------------------------------------------+
+--------------------------------------------------------------------------------------------------------------------+
|  Inner_Iter|    rms[Rho]|   rms[RhoU]|   rms[RhoV]|   rms[RhoE]|          CD|          CL|         CMz|   LinSolRes|
+--------------------------------------------------------------------------------------------------------------------+
|        1525|   -7.508094|   -6.718838|   -6.982226|   -7.163006|    0.324159|    1.338529|    0.729494|   -0.716544|
|        1550|   -7.442697|   -6.701408|   -6.971575|   -7.082103|    0.324406|    1.352296|    0.734229|   -0.606152|
|        1575|   -7.406783|   -6.759648|   -6.937782|   -7.049902|    0.323475|    1.358441|    0.734016|   -0.681983|
|        1600|   -7.531906|   -6.724313|   -7.090941|   -7.166897|    0.324990|    1.374867|    0.741384|   -0.574137|
+-----------------------------------------------------------------------+
|        File Writing Summary       |              Filename             |
+-----------------------------------------------------------------------+
|SU2 binary restart                 |restart.dat                        |
|Paraview                           |vol_solution.vtu                   |
|Paraview surface                   |surface.vtu                        |
+-----------------------------------------------------------------------+
+--------------------------------------------------------------------------------------------------------------------+
|  Inner_Iter|    rms[Rho]|   rms[RhoU]|   rms[RhoV]|   rms[RhoE]|          CD|          CL|         CMz|   LinSolRes|
+--------------------------------------------------------------------------------------------------------------------+
|        1625|   -7.460040|   -6.751456|   -7.039435|   -7.103583|    0.324478|    1.384561|    0.743611|   -0.642911|
|        1650|   -7.519304|   -6.781554|   -7.063908|   -7.193181|    0.324504|    1.391909|    0.745514|   -0.667257|
|        1675|   -7.582546|   -6.778298|   -7.146512|   -7.215813|    0.326031|    1.405791|    0.752308|   -0.474830|
|        1700|   -7.485268|   -6.810319|   -7.091173|   -7.123452|    0.325834|    1.411637|    0.753724|   -0.670308|
+-----------------------------------------------------------------------+
|        File Writing Summary       |              Filename             |
+-----------------------------------------------------------------------+
|SU2 binary restart                 |restart.dat                        |
|Paraview                           |vol_solution.vtu                   |
|Paraview surface                   |surface.vtu                        |
+-----------------------------------------------------------------------+
+--------------------------------------------------------------------------------------------------------------------+
|  Inner_Iter|    rms[Rho]|   rms[RhoU]|   rms[RhoV]|   rms[RhoE]|          CD|          CL|         CMz|   LinSolRes|
+--------------------------------------------------------------------------------------------------------------------+
|        1725|   -7.625037|   -6.867471|   -7.169038|   -7.295773|    0.326330|    1.416607|    0.755850|   -0.404932|
|        1750|   -7.688220|   -6.937310|   -7.283552|   -7.311801|    0.327309|    1.423891|    0.759959|   -0.482972|
|        1775|   -7.712908|   -7.016978|   -7.358772|   -7.374708|    0.327114|    1.424451|    0.759840|   -0.437574|
|        1800|   -7.730741|   -7.050689|   -7.363150|   -7.372971|    0.327606|    1.425141|    0.760911|   -0.548004|
+-----------------------------------------------------------------------+
|        File Writing Summary       |              Filename             |
+-----------------------------------------------------------------------+
|SU2 binary restart                 |restart.dat                        |
|Paraview                           |vol_solution.vtu                   |
|Paraview surface                   |surface.vtu                        |
+-----------------------------------------------------------------------+
+--------------------------------------------------------------------------------------------------------------------+
|  Inner_Iter|    rms[Rho]|   rms[RhoU]|   rms[RhoV]|   rms[RhoE]|          CD|          CL|         CMz|   LinSolRes|
+--------------------------------------------------------------------------------------------------------------------+
|        1825|   -7.801368|   -7.155006|   -7.409545|   -7.431630|    0.328165|    1.426302|    0.762566|   -0.497739|
|        1850|   -7.778908|   -7.123741|   -7.447918|   -7.419208|    0.327784|    1.422253|    0.760874|   -0.413802|
|        1875|   -7.748831|   -7.079648|   -7.335635|   -7.383851|    0.327759|    1.418183|    0.759862|   -0.569893|
|        1900|   -7.751023|   -7.137000|   -7.313046|   -7.397255|    0.327790|    1.414741|    0.759352|   -0.477736|
+-----------------------------------------------------------------------+
|        File Writing Summary       |              Filename             |
+-----------------------------------------------------------------------+
|SU2 binary restart                 |restart.dat                        |
|Paraview                           |vol_solution.vtu                   |
|Paraview surface                   |surface.vtu                        |
+-----------------------------------------------------------------------+
+--------------------------------------------------------------------------------------------------------------------+
|  Inner_Iter|    rms[Rho]|   rms[RhoU]|   rms[RhoV]|   rms[RhoE]|          CD|          CL|         CMz|   LinSolRes|
+--------------------------------------------------------------------------------------------------------------------+
|        1925|   -7.732216|   -7.094503|   -7.427667|   -7.373861|    0.326977|    1.407622|    0.756167|   -0.536704|
|        1950|   -7.768410|   -7.078802|   -7.359090|   -7.421128|    0.326665|    1.401732|    0.754195|   -0.412186|
|        1975|   -7.733149|   -7.120065|   -7.352934|   -7.387887|    0.326393|    1.397307|    0.752835|   -0.500393|
|        2000|   -7.795079|   -7.102903|   -7.489538|   -7.430212|    0.325539|    1.390938|    0.749757|   -0.543701|
+-----------------------------------------------------------------------+
|        File Writing Summary       |              Filename             |
+-----------------------------------------------------------------------+
|SU2 binary restart                 |restart.dat                        |
|Paraview                           |vol_solution.vtu                   |
|Paraview surface                   |surface.vtu                        |
+-----------------------------------------------------------------------+
+--------------------------------------------------------------------------------------------------------------------+
|  Inner_Iter|    rms[Rho]|   rms[RhoU]|   rms[RhoV]|   rms[RhoE]|          CD|          CL|         CMz|   LinSolRes|
+--------------------------------------------------------------------------------------------------------------------+
|        2025|   -7.650921|   -7.151566|   -7.490523|   -7.272298|    0.325156|    1.386643|    0.748056|   -0.462264|
|        2050|   -7.776585|   -7.175304|   -7.484359|   -7.421924|    0.324852|    1.384394|    0.747214|   -0.472397|
|        2075|   -7.866963|   -7.203637|   -7.580568|   -7.487858|    0.324150|    1.381099|    0.745193|   -0.499390|
|        2100|   -7.889318|   -7.299628|   -7.687392|   -7.521191|    0.323841|    1.379915|    0.744481|   -0.338287|
+-----------------------------------------------------------------------+
|        File Writing Summary       |              Filename             |
+-----------------------------------------------------------------------+
|SU2 binary restart                 |restart.dat                        |
|Paraview                           |vol_solution.vtu                   |
|Paraview surface                   |surface.vtu                        |
+-----------------------------------------------------------------------+
+--------------------------------------------------------------------------------------------------------------------+
|  Inner_Iter|    rms[Rho]|   rms[RhoU]|   rms[RhoV]|   rms[RhoE]|          CD|          CL|         CMz|   LinSolRes|
+--------------------------------------------------------------------------------------------------------------------+
|        2125|   -7.921216|   -7.296699|   -7.635629|   -7.558026|    0.323653|    1.380643|    0.744609|   -0.353997|
|        2150|   -7.959803|   -7.330474|   -7.604377|   -7.577566|    0.323165|    1.380752|    0.743905|   -0.380750|
|        2175|   -8.001160|   -7.373289|   -7.692154|   -7.648217|    0.323025|    1.382644|    0.744360|   -0.390339|
|        2200|   -7.933849|   -7.315761|   -7.646452|   -7.563206|    0.322907|    1.385649|    0.745250|   -0.326816|
+-----------------------------------------------------------------------+
|        File Writing Summary       |              Filename             |
+-----------------------------------------------------------------------+
|SU2 binary restart                 |restart.dat                        |
|Paraview                           |vol_solution.vtu                   |
|Paraview surface                   |surface.vtu                        |
+-----------------------------------------------------------------------+
+--------------------------------------------------------------------------------------------------------------------+
|  Inner_Iter|    rms[Rho]|   rms[RhoU]|   rms[RhoV]|   rms[RhoE]|          CD|          CL|         CMz|   LinSolRes|
+--------------------------------------------------------------------------------------------------------------------+
|        2225|   -7.937957|   -7.331349|   -7.590554|   -7.573783|    0.322621|    1.388015|    0.745550|   -0.391629|
|        2250|   -7.931009|   -7.293776|   -7.656269|   -7.573437|    0.322719|    1.391789|    0.746960|   -0.343747|
|        2275|   -7.833155|   -7.250891|   -7.593713|   -7.458561|    0.322772|    1.395655|    0.748339|   -0.322319|
|        2300|   -7.869179|   -7.281956|   -7.575779|   -7.502879|    0.322531|    1.398081|    0.748777|   -0.362374|
+-----------------------------------------------------------------------+
|        File Writing Summary       |              Filename             |
+-----------------------------------------------------------------------+
|SU2 binary restart                 |restart.dat                        |
|Paraview                           |vol_solution.vtu                   |
|Paraview surface                   |surface.vtu                        |
+-----------------------------------------------------------------------+
+--------------------------------------------------------------------------------------------------------------------+
|  Inner_Iter|    rms[Rho]|   rms[RhoU]|   rms[RhoV]|   rms[RhoE]|          CD|          CL|         CMz|   LinSolRes|
+--------------------------------------------------------------------------------------------------------------------+
|        2325|   -7.961144|   -7.300765|   -7.719990|   -7.593613|    0.322551|    1.401243|    0.749941|   -0.331855|
|        2350|   -7.953619|   -7.343005|   -7.792285|   -7.577711|    0.322559|    1.404301|    0.751088|   -0.296760|
|        2375|   -7.963092|   -7.379450|   -7.764980|   -7.597163|    0.322502|    1.406336|    0.751708|   -0.320800|
|        2400|   -7.990343|   -7.402987|   -7.835935|   -7.614850|    0.322583|    1.408614|    0.752714|   -0.277765|
+-----------------------------------------------------------------------+
|        File Writing Summary       |              Filename             |
+-----------------------------------------------------------------------+
|SU2 binary restart                 |restart.dat                        |
|Paraview                           |vol_solution.vtu                   |
|Paraview surface                   |surface.vtu                        |
+-----------------------------------------------------------------------+
+--------------------------------------------------------------------------------------------------------------------+
|  Inner_Iter|    rms[Rho]|   rms[RhoU]|   rms[RhoV]|   rms[RhoE]|          CD|          CL|         CMz|   LinSolRes|
+--------------------------------------------------------------------------------------------------------------------+
|        2425|   -8.029021|   -7.457984|   -7.939122|   -7.648826|    0.322499|    1.410107|    0.753261|   -0.285191|
|        2450|   -8.145805|   -7.528252|   -7.954325|   -7.779827|    0.322392|    1.410767|    0.753457|   -0.334267|
|        2475|   -8.196723|   -7.597599|   -7.978411|   -7.810139|    0.322473|    1.411816|    0.754111|   -0.307722|
|        2500|   -8.218766|   -7.659986|   -8.041328|   -7.837797|    0.322351|    1.411961|    0.754202|   -0.274596|
+-----------------------------------------------------------------------+
|        File Writing Summary       |              Filename             |
+-----------------------------------------------------------------------+
|SU2 binary restart                 |restart.dat                        |
|Paraview                           |vol_solution.vtu                   |
|Paraview surface                   |surface.vtu                        |
+-----------------------------------------------------------------------+
+--------------------------------------------------------------------------------------------------------------------+
|  Inner_Iter|    rms[Rho]|   rms[RhoU]|   rms[RhoV]|   rms[RhoE]|          CD|          CL|         CMz|   LinSolRes|
+--------------------------------------------------------------------------------------------------------------------+
|        2525|   -8.267893|   -7.666784|   -7.961222|   -7.894278|    0.322136|    1.411225|    0.753847|   -0.347488|
|        2550|   -8.293638|   -7.710416|   -7.893680|   -7.909024|    0.322030|    1.410784|    0.753809|   -0.381293|
|        2575|   -8.399103|   -7.849197|   -8.020732|   -8.059763|    0.321810|    1.409852|    0.753421|   -0.407878|
|        2600|   -8.379104|   -7.840208|   -8.099651|   -8.014318|    0.321549|    1.408530|    0.752821|   -0.305163|
+-----------------------------------------------------------------------+
|        File Writing Summary       |              Filename             |
+-----------------------------------------------------------------------+
|SU2 binary restart                 |restart.dat                        |
|Paraview                           |vol_solution.vtu                   |
|Paraview surface                   |surface.vtu                        |
+-----------------------------------------------------------------------+
+--------------------------------------------------------------------------------------------------------------------+
|  Inner_Iter|    rms[Rho]|   rms[RhoU]|   rms[RhoV]|   rms[RhoE]|          CD|          CL|         CMz|   LinSolRes|
+--------------------------------------------------------------------------------------------------------------------+
|        2625|   -8.398011|   -7.899721|   -8.071629|   -8.042103|    0.321362|    1.407591|    0.752496|   -0.344643|
|        2650|   -8.435057|   -7.881473|   -8.153710|   -8.086994|    0.321074|    1.406445|    0.751911|   -0.326258|
|        2675|   -8.362885|   -7.866256|   -8.170066|   -7.989137|    0.320811|    1.405358|    0.751353|   -0.273362|
|        2700|   -8.429767|   -7.865409|   -8.152056|   -8.070462|    0.320605|    1.404907|    0.751129|   -0.342586|
+-----------------------------------------------------------------------+
|        File Writing Summary       |              Filename             |
+-----------------------------------------------------------------------+
|SU2 binary restart                 |restart.dat                        |
|Paraview                           |vol_solution.vtu                   |
|Paraview surface                   |surface.vtu                        |
+-----------------------------------------------------------------------+
+--------------------------------------------------------------------------------------------------------------------+
|  Inner_Iter|    rms[Rho]|   rms[RhoU]|   rms[RhoV]|   rms[RhoE]|          CD|          CL|         CMz|   LinSolRes|
+--------------------------------------------------------------------------------------------------------------------+
|        2725|   -8.468557|   -7.855520|   -8.204064|   -8.098030|    0.320316|    1.404317|    0.750681|   -0.316500|
|        2750|   -8.469789|   -7.881784|   -8.256520|   -8.100610|    0.320090|    1.404035|    0.750410|   -0.343482|
|        2775|   -8.442964|   -7.819845|   -8.184235|   -8.072457|    0.319912|    1.404352|    0.750429|   -0.333690|
|        2800|   -8.416945|   -7.806483|   -8.128837|   -8.037074|    0.319633|    1.404479|    0.750204|   -0.373707|
+-----------------------------------------------------------------------+
|        File Writing Summary       |              Filename             |
+-----------------------------------------------------------------------+
|SU2 binary restart                 |restart.dat                        |
|Paraview                           |vol_solution.vtu                   |
|Paraview surface                   |surface.vtu                        |
+-----------------------------------------------------------------------+
+--------------------------------------------------------------------------------------------------------------------+
|  Inner_Iter|    rms[Rho]|   rms[RhoU]|   rms[RhoV]|   rms[RhoE]|          CD|          CL|         CMz|   LinSolRes|
+--------------------------------------------------------------------------------------------------------------------+
|        2825|   -8.447014|   -7.801278|   -8.171405|   -8.083789|    0.319426|    1.404953|    0.750198|   -0.364991|
|        2850|   -8.363003|   -7.735227|   -8.132452|   -7.986341|    0.319262|    1.405887|    0.750416|   -0.325017|
|        2875|   -8.342270|   -7.719818|   -8.067437|   -7.967367|    0.319012|    1.406620|    0.750416|   -0.353009|
|        2900|   -8.325659|   -7.701135|   -8.097655|   -7.957138|    0.318853|    1.407708|    0.750671|   -0.351579|
+-----------------------------------------------------------------------+
|        File Writing Summary       |              Filename             |
+-----------------------------------------------------------------------+
|SU2 binary restart                 |restart.dat                        |
|Paraview                           |vol_solution.vtu                   |
|Paraview surface                   |surface.vtu                        |
+-----------------------------------------------------------------------+
+--------------------------------------------------------------------------------------------------------------------+
|  Inner_Iter|    rms[Rho]|   rms[RhoU]|   rms[RhoV]|   rms[RhoE]|          CD|          CL|         CMz|   LinSolRes|
+--------------------------------------------------------------------------------------------------------------------+
|        2925|   -8.266988|   -7.654289|   -8.064965|   -7.891714|    0.318731|    1.409102|    0.751103|   -0.314349|
|        2950|   -8.226500|   -7.633965|   -7.992589|   -7.852490|    0.318593|    1.410340|    0.751417|   -0.312548|
|        2975|   -8.239044|   -7.639409|   -8.028922|   -7.867365|    0.318479|    1.411694|    0.751843|   -0.305934|
|        3000|   -8.236571|   -7.649347|   -8.093820|   -7.857518|    0.318344|    1.412949|    0.752217|   -0.285040|
+-----------------------------------------------------------------------+
|        File Writing Summary       |              Filename             |
+-----------------------------------------------------------------------+
|SU2 binary restart                 |restart.dat                        |
|Paraview                           |vol_solution.vtu                   |
|Paraview surface                   |surface.vtu                        |
+-----------------------------------------------------------------------+
+--------------------------------------------------------------------------------------------------------------------+
|  Inner_Iter|    rms[Rho]|   rms[RhoU]|   rms[RhoV]|   rms[RhoE]|          CD|          CL|         CMz|   LinSolRes|
+--------------------------------------------------------------------------------------------------------------------+
|        3025|   -8.274748|   -7.685418|   -8.139641|   -7.897079|    0.318144|    1.413852|    0.752382|   -0.302464|
|        3050|   -8.334654|   -7.712005|   -8.206712|   -7.954054|    0.317975|    1.414743|    0.752607|   -0.300541|
|        3075|   -8.354031|   -7.754458|   -8.257167|   -7.970086|    0.317804|    1.415551|    0.752819|   -0.319218|
|        3100|   -8.405291|   -7.783103|   -8.247620|   -8.028141|    0.317646|    1.416206|    0.752976|   -0.305149|
+-----------------------------------------------------------------------+
|        File Writing Summary       |              Filename             |
+-----------------------------------------------------------------------+
|SU2 binary restart                 |restart.dat                        |
|Paraview                           |vol_solution.vtu                   |
|Paraview surface                   |surface.vtu                        |
+-----------------------------------------------------------------------+
+--------------------------------------------------------------------------------------------------------------------+
|  Inner_Iter|    rms[Rho]|   rms[RhoU]|   rms[RhoV]|   rms[RhoE]|          CD|          CL|         CMz|   LinSolRes|
+--------------------------------------------------------------------------------------------------------------------+
|        3125|   -8.371557|   -7.789896|   -8.248846|   -7.985258|    0.317526|    1.416878|    0.753196|   -0.304541|
|        3150|   -8.422678|   -7.826260|   -8.265064|   -8.038024|    0.317348|    1.417366|    0.753289|   -0.271947|
|        3175|   -8.497768|   -7.874436|   -8.320497|   -8.116960|    0.317155|    1.417633|    0.753280|   -0.341878|
|        3200|   -8.505850|   -7.901987|   -8.339436|   -8.117073|    0.316965|    1.417904|    0.753280|   -0.288296|
+-----------------------------------------------------------------------+
|        File Writing Summary       |              Filename             |
+-----------------------------------------------------------------------+
|SU2 binary restart                 |restart.dat                        |
|Paraview                           |vol_solution.vtu                   |
|Paraview surface                   |surface.vtu                        |
+-----------------------------------------------------------------------+
+--------------------------------------------------------------------------------------------------------------------+
|  Inner_Iter|    rms[Rho]|   rms[RhoU]|   rms[RhoV]|   rms[RhoE]|          CD|          CL|         CMz|   LinSolRes|
+--------------------------------------------------------------------------------------------------------------------+
|        3225|   -8.564142|   -7.947922|   -8.383837|   -8.182510|    0.316706|    1.417989|    0.753155|   -0.340056|
|        3250|   -8.623449|   -7.960875|   -8.355463|   -8.245715|    0.316519|    1.418135|    0.753110|   -0.373171|
|        3275|   -8.512963|   -7.910741|   -8.291975|   -8.123105|    0.316381|    1.418485|    0.753210|   -0.306114|
|        3300|   -8.473095|   -7.882572|   -8.214746|   -8.078842|    0.316166|    1.418661|    0.753140|   -0.302617|
+-----------------------------------------------------------------------+
|        File Writing Summary       |              Filename             |
+-----------------------------------------------------------------------+
|SU2 binary restart                 |restart.dat                        |
|Paraview                           |vol_solution.vtu                   |
|Paraview surface                   |surface.vtu                        |
+-----------------------------------------------------------------------+
+--------------------------------------------------------------------------------------------------------------------+
|  Inner_Iter|    rms[Rho]|   rms[RhoU]|   rms[RhoV]|   rms[RhoE]|          CD|          CL|         CMz|   LinSolRes|
+--------------------------------------------------------------------------------------------------------------------+
|        3325|   -8.552846|   -7.947783|   -8.287248|   -8.170733|    0.315933|    1.418754|    0.753027|   -0.364067|
|        3350|   -8.542615|   -7.934622|   -8.317272|   -8.151084|    0.315744|    1.419030|    0.753017|   -0.333879|
|        3375|   -8.540181|   -7.942230|   -8.348432|   -8.156567|    0.315478|    1.419162|    0.752866|   -0.300536|
|        3400|   -8.569064|   -7.923906|   -8.332941|   -8.191420|    0.315232|    1.419382|    0.752781|   -0.363326|
+-----------------------------------------------------------------------+
|        File Writing Summary       |              Filename             |
+-----------------------------------------------------------------------+
|SU2 binary restart                 |restart.dat                        |
|Paraview                           |vol_solution.vtu                   |
|Paraview surface                   |surface.vtu                        |
+-----------------------------------------------------------------------+
+--------------------------------------------------------------------------------------------------------------------+
|  Inner_Iter|    rms[Rho]|   rms[RhoU]|   rms[RhoV]|   rms[RhoE]|          CD|          CL|         CMz|   LinSolRes|
+--------------------------------------------------------------------------------------------------------------------+
|        3425|   -8.500014|   -7.848129|   -8.258451|   -8.117989|    0.315084|    1.419933|    0.752924|   -0.333762|
|        3450|   -8.380034|   -7.772378|   -8.127829|   -7.990109|    0.314891|    1.420451|    0.752979|   -0.297560|
|        3475|   -8.409558|   -7.813385|   -8.127347|   -8.024555|    0.314631|    1.420804|    0.752886|   -0.325713|
|        3500|   -8.501626|   -7.825315|   -8.231825|   -8.118080|    0.314383|    1.421302|    0.752885|   -0.356971|
+-----------------------------------------------------------------------+
|        File Writing Summary       |              Filename             |
+-----------------------------------------------------------------------+
|SU2 binary restart                 |restart.dat                        |
|Paraview                           |vol_solution.vtu                   |
|Paraview surface                   |surface.vtu                        |
+-----------------------------------------------------------------------+
+--------------------------------------------------------------------------------------------------------------------+
|  Inner_Iter|    rms[Rho]|   rms[RhoU]|   rms[RhoV]|   rms[RhoE]|          CD|          CL|         CMz|   LinSolRes|
+--------------------------------------------------------------------------------------------------------------------+
|        3525|   -8.446977|   -7.810798|   -8.225613|   -8.064366|    0.314190|    1.421995|    0.753007|   -0.354214|
|        3550|   -8.380089|   -7.755932|   -8.149447|   -8.001360|    0.314031|    1.422805|    0.753209|   -0.312191|
|        3575|   -8.311277|   -7.714234|   -8.066114|   -7.928509|    0.313875|    1.423671|    0.753439|   -0.310883|
|        3600|   -8.334675|   -7.738197|   -8.110363|   -7.952713|    0.313642|    1.424334|    0.753498|   -0.300975|
+-----------------------------------------------------------------------+
|        File Writing Summary       |              Filename             |
+-----------------------------------------------------------------------+
|SU2 binary restart                 |restart.dat                        |
|Paraview                           |vol_solution.vtu                   |
|Paraview surface                   |surface.vtu                        |
+-----------------------------------------------------------------------+
+--------------------------------------------------------------------------------------------------------------------+
|  Inner_Iter|    rms[Rho]|   rms[RhoU]|   rms[RhoV]|   rms[RhoE]|          CD|          CL|         CMz|   LinSolRes|
+--------------------------------------------------------------------------------------------------------------------+
|        3625|   -8.408722|   -7.773715|   -8.215668|   -8.025517|    0.313381|    1.424913|    0.753501|   -0.351532|
|        3650|   -8.448533|   -7.782575|   -8.220539|   -8.062691|    0.313169|    1.425618|    0.753621|   -0.351057|
|        3675|   -8.375864|   -7.771381|   -8.193806|   -7.990160|    0.312986|    1.426348|    0.753770|   -0.311485|
|        3700|   -8.356098|   -7.750744|   -8.132707|   -7.969162|    0.312778|    1.427018|    0.753874|   -0.310381|
+-----------------------------------------------------------------------+
|        File Writing Summary       |              Filename             |
+-----------------------------------------------------------------------+
|SU2 binary restart                 |restart.dat                        |
|Paraview                           |vol_solution.vtu                   |
|Paraview surface                   |surface.vtu                        |
+-----------------------------------------------------------------------+
+--------------------------------------------------------------------------------------------------------------------+
|  Inner_Iter|    rms[Rho]|   rms[RhoU]|   rms[RhoV]|   rms[RhoE]|          CD|          CL|         CMz|   LinSolRes|
+--------------------------------------------------------------------------------------------------------------------+
|        3725|   -8.396221|   -7.771382|   -8.197668|   -8.013570|    0.312567|    1.427710|    0.754004|   -0.334410|
|        3750|   -8.398412|   -7.778394|   -8.237531|   -8.014637|    0.312394|    1.428456|    0.754172|   -0.308448|
|        3775|   -8.393899|   -7.786819|   -8.241132|   -8.009046|    0.312182|    1.429090|    0.754266|   -0.314326|
|        3800|   -8.432659|   -7.806907|   -8.262190|   -8.048094|    0.311943|    1.429633|    0.754303|   -0.303228|
+-----------------------------------------------------------------------+
|        File Writing Summary       |              Filename             |
+-----------------------------------------------------------------------+
|SU2 binary restart                 |restart.dat                        |
|Paraview                           |vol_solution.vtu                   |
|Paraview surface                   |surface.vtu                        |
+-----------------------------------------------------------------------+
+--------------------------------------------------------------------------------------------------------------------+
|  Inner_Iter|    rms[Rho]|   rms[RhoU]|   rms[RhoV]|   rms[RhoE]|          CD|          CL|         CMz|   LinSolRes|
+--------------------------------------------------------------------------------------------------------------------+
|        3825|   -8.460482|   -7.820102|   -8.306655|   -8.072689|    0.311705|    1.430128|    0.754329|   -0.326496|
|        3850|   -8.460939|   -7.826029|   -8.313698|   -8.074193|    0.311475|    1.430644|    0.754370|   -0.315118|
|        3875|   -8.459595|   -7.826248|   -8.295853|   -8.073615|    0.311248|    1.431152|    0.754412|   -0.347914|
|        3900|   -8.454672|   -7.824010|   -8.267771|   -8.068820|    0.311023|    1.431670|    0.754460|   -0.310698|
+-----------------------------------------------------------------------+
|        File Writing Summary       |              Filename             |
+-----------------------------------------------------------------------+
|SU2 binary restart                 |restart.dat                        |
|Paraview                           |vol_solution.vtu                   |
|Paraview surface                   |surface.vtu                        |
+-----------------------------------------------------------------------+
+--------------------------------------------------------------------------------------------------------------------+
|  Inner_Iter|    rms[Rho]|   rms[RhoU]|   rms[RhoV]|   rms[RhoE]|          CD|          CL|         CMz|   LinSolRes|
+--------------------------------------------------------------------------------------------------------------------+
|        3925|   -8.452058|   -7.819088|   -8.272049|   -8.065901|    0.310814|    1.432218|    0.754534|   -0.330076|
|        3950|   -8.436248|   -7.813081|   -8.270270|   -8.049494|    0.310575|    1.432740|    0.754564|   -0.306857|
|        3975|   -8.461338|   -7.824538|   -8.279490|   -8.077313|    0.310337|    1.433255|    0.754600|   -0.326562|
|        4000|   -8.436553|   -7.813357|   -8.270097|   -8.049708|    0.310117|    1.433784|    0.754652|   -0.334990|
+-----------------------------------------------------------------------+
|        File Writing Summary       |              Filename             |
+-----------------------------------------------------------------------+
|SU2 binary restart                 |restart.dat                        |
|Paraview                           |vol_solution.vtu                   |
|Paraview surface                   |surface.vtu                        |
+-----------------------------------------------------------------------+
+--------------------------------------------------------------------------------------------------------------------+
|  Inner_Iter|    rms[Rho]|   rms[RhoU]|   rms[RhoV]|   rms[RhoE]|          CD|          CL|         CMz|   LinSolRes|
+--------------------------------------------------------------------------------------------------------------------+
|        4025|   -8.401968|   -7.795583|   -8.234626|   -8.011732|    0.309851|    1.434227|    0.754610|   -0.281276|
|        4050|   -8.459662|   -7.813474|   -8.216214|   -8.073251|    0.309507|    1.434535|    0.754443|   -0.361024|
|        4075|   -8.466372|   -7.774418|   -8.165812|   -8.078898|    0.309304|    1.435153|    0.754545|   -0.375198|
|        4100|   -8.323519|   -7.699748|   -8.067341|   -7.933663|    0.309138|    1.435986|    0.754749|   -0.294313|
+-----------------------------------------------------------------------+
|        File Writing Summary       |              Filename             |
+-----------------------------------------------------------------------+
|SU2 binary restart                 |restart.dat                        |
|Paraview                           |vol_solution.vtu                   |
|Paraview surface                   |surface.vtu                        |
+-----------------------------------------------------------------------+
+--------------------------------------------------------------------------------------------------------------------+
|  Inner_Iter|    rms[Rho]|   rms[RhoU]|   rms[RhoV]|   rms[RhoE]|          CD|          CL|         CMz|   LinSolRes|
+--------------------------------------------------------------------------------------------------------------------+
|        4125|   -8.318139|   -7.698534|   -7.993362|   -7.927073|    0.308862|    1.436625|    0.754759|   -0.347958|
|        4150|   -8.395490|   -7.733455|   -8.121461|   -8.018643|    0.308659|    1.437386|    0.754918|   -0.357156|
|        4175|   -8.315199|   -7.714159|   -8.139798|   -7.924919|    0.308483|    1.438349|    0.755153|   -0.292521|
|        4200|   -8.336142|   -7.740180|   -8.134937|   -7.950210|    0.308167|    1.438918|    0.755102|   -0.321967|
+-----------------------------------------------------------------------+
|        File Writing Summary       |              Filename             |
+-----------------------------------------------------------------------+
|SU2 binary restart                 |restart.dat                        |
|Paraview                           |vol_solution.vtu                   |
|Paraview surface                   |surface.vtu                        |
+-----------------------------------------------------------------------+
+--------------------------------------------------------------------------------------------------------------------+
|  Inner_Iter|    rms[Rho]|   rms[RhoU]|   rms[RhoV]|   rms[RhoE]|          CD|          CL|         CMz|   LinSolRes|
+--------------------------------------------------------------------------------------------------------------------+
|        4225|   -8.414422|   -7.750463|   -8.196449|   -8.031250|    0.307932|    1.439653|    0.755227|   -0.353475|
|        4250|   -8.369243|   -7.739699|   -8.187666|   -7.980208|    0.307735|    1.440509|    0.755425|   -0.304854|
|        4275|   -8.354841|   -7.735022|   -8.146863|   -7.966820|    0.307457|    1.441110|    0.755432|   -0.317886|
|        4300|   -8.398266|   -7.758730|   -8.189806|   -8.013926|    0.307210|    1.441778|    0.755518|   -0.322106|
+-----------------------------------------------------------------------+
|        File Writing Summary       |              Filename             |
+-----------------------------------------------------------------------+
|SU2 binary restart                 |restart.dat                        |
|Paraview                           |vol_solution.vtu                   |
|Paraview surface                   |surface.vtu                        |
+-----------------------------------------------------------------------+
+--------------------------------------------------------------------------------------------------------------------+
|  Inner_Iter|    rms[Rho]|   rms[RhoU]|   rms[RhoV]|   rms[RhoE]|          CD|          CL|         CMz|   LinSolRes|
+--------------------------------------------------------------------------------------------------------------------+
|        4325|   -8.397683|   -7.765954|   -8.236226|   -8.008098|    0.306955|    1.442441|    0.755588|   -0.333881|
|        4350|   -8.405724|   -7.769789|   -8.237987|   -8.018987|    0.306695|    1.443038|    0.755623|   -0.313956|
|        4375|   -8.402660|   -7.765532|   -8.232461|   -8.016572|    0.306449|    1.443721|    0.755721|   -0.327968|
|        4400|   -8.383596|   -7.756578|   -8.217565|   -7.995756|    0.306205|    1.444365|    0.755799|   -0.322068|
+-----------------------------------------------------------------------+
|        File Writing Summary       |              Filename             |
+-----------------------------------------------------------------------+
|SU2 binary restart                 |restart.dat                        |
|Paraview                           |vol_solution.vtu                   |
|Paraview surface                   |surface.vtu                        |
+-----------------------------------------------------------------------+
+--------------------------------------------------------------------------------------------------------------------+
|  Inner_Iter|    rms[Rho]|   rms[RhoU]|   rms[RhoV]|   rms[RhoE]|          CD|          CL|         CMz|   LinSolRes|
+--------------------------------------------------------------------------------------------------------------------+
|        4425|   -8.384326|   -7.761818|   -8.208176|   -7.996365|    0.305933|    1.444914|    0.755793|   -0.304830|
|        4450|   -8.405987|   -7.774701|   -8.246388|   -8.016525|    0.305636|    1.445449|    0.755775|   -0.352433|
|        4475|   -8.427720|   -7.775315|   -8.244768|   -8.039178|    0.305361|    1.446020|    0.755785|   -0.312153|
|        4500|   -8.413550|   -7.763751|   -8.229339|   -8.027106|    0.305094|    1.446654|    0.755826|   -0.351343|
+-----------------------------------------------------------------------+
|        File Writing Summary       |              Filename             |
+-----------------------------------------------------------------------+
|SU2 binary restart                 |restart.dat                        |
|Paraview                           |vol_solution.vtu                   |
|Paraview surface                   |surface.vtu                        |
+-----------------------------------------------------------------------+
+--------------------------------------------------------------------------------------------------------------------+
|  Inner_Iter|    rms[Rho]|   rms[RhoU]|   rms[RhoV]|   rms[RhoE]|          CD|          CL|         CMz|   LinSolRes|
+--------------------------------------------------------------------------------------------------------------------+
|        4525|   -8.371222|   -7.739402|   -8.178745|   -7.985049|    0.304848|    1.447392|    0.755933|   -0.334141|
|        4550|   -8.352496|   -7.718199|   -8.146860|   -7.967452|    0.304610|    1.448175|    0.756063|   -0.320538|
|        4575|   -8.331693|   -7.719338|   -8.141173|   -7.945242|    0.304345|    1.448907|    0.756126|   -0.326254|
|        4600|   -8.383347|   -7.733415|   -8.196420|   -7.998483|    0.304044|    1.449576|    0.756143|   -0.324898|
+-----------------------------------------------------------------------+
|        File Writing Summary       |              Filename             |
+-----------------------------------------------------------------------+
|SU2 binary restart                 |restart.dat                        |
|Paraview                           |vol_solution.vtu                   |
|Paraview surface                   |surface.vtu                        |
+-----------------------------------------------------------------------+
+--------------------------------------------------------------------------------------------------------------------+
|  Inner_Iter|    rms[Rho]|   rms[RhoU]|   rms[RhoV]|   rms[RhoE]|          CD|          CL|         CMz|   LinSolRes|
+--------------------------------------------------------------------------------------------------------------------+
|        4625|   -8.372664|   -7.736565|   -8.210419|   -7.983829|    0.303749|    1.450261|    0.756156|   -0.325453|
|        4650|   -8.402468|   -7.736933|   -8.212237|   -8.019495|    0.303446|    1.450986|    0.756202|   -0.339193|
|        4675|   -8.352066|   -7.701929|   -8.153606|   -7.968708|    0.303230|    1.451906|    0.756402|   -0.349890|
|        4700|   -8.280470|   -7.661984|   -8.059225|   -7.893924|    0.302997|    1.452857|    0.756594|   -0.308907|
+-----------------------------------------------------------------------+
|        File Writing Summary       |              Filename             |
+-----------------------------------------------------------------------+
|SU2 binary restart                 |restart.dat                        |
|Paraview                           |vol_solution.vtu                   |
|Paraview surface                   |surface.vtu                        |
+-----------------------------------------------------------------------+
+--------------------------------------------------------------------------------------------------------------------+
|  Inner_Iter|    rms[Rho]|   rms[RhoU]|   rms[RhoV]|   rms[RhoE]|          CD|          CL|         CMz|   LinSolRes|
+--------------------------------------------------------------------------------------------------------------------+
|        4725|   -8.301860|   -7.683039|   -8.061636|   -7.918063|    0.302702|    1.453665|    0.756664|   -0.330709|
|        4750|   -8.353081|   -7.696154|   -8.154444|   -7.968735|    0.302449|    1.454542|    0.756817|   -0.333065|
|        4775|   -8.325457|   -7.702353|   -8.175005|   -7.936693|    0.302170|    1.455391|    0.756927|   -0.316260|
|        4800|   -8.359402|   -7.716308|   -8.179825|   -7.975021|    0.301835|    1.456065|    0.756928|   -0.333197|
+-----------------------------------------------------------------------+
|        File Writing Summary       |              Filename             |
+-----------------------------------------------------------------------+
|SU2 binary restart                 |restart.dat                        |
|Paraview                           |vol_solution.vtu                   |
|Paraview surface                   |surface.vtu                        |
+-----------------------------------------------------------------------+
+--------------------------------------------------------------------------------------------------------------------+
|  Inner_Iter|    rms[Rho]|   rms[RhoU]|   rms[RhoV]|   rms[RhoE]|          CD|          CL|         CMz|   LinSolRes|
+--------------------------------------------------------------------------------------------------------------------+
|        4825|   -8.368140|   -7.712180|   -8.192936|   -7.981569|    0.301584|    1.456899|    0.757083|   -0.341950|
|        4850|   -8.330372|   -7.697228|   -8.150687|   -7.941349|    0.301318|    1.457683|    0.757188|   -0.305901|
|        4875|   -8.338347|   -7.708981|   -8.137274|   -7.948926|    0.300960|    1.458228|    0.757101|   -0.327628|
|        4900|   -8.396019|   -7.729119|   -8.183937|   -8.007076|    0.300608|    1.458830|    0.757055|   -0.351087|
+-----------------------------------------------------------------------+
|        File Writing Summary       |              Filename             |
+-----------------------------------------------------------------------+
|SU2 binary restart                 |restart.dat                        |
|Paraview                           |vol_solution.vtu                   |
|Paraview surface                   |surface.vtu                        |
+-----------------------------------------------------------------------+
+--------------------------------------------------------------------------------------------------------------------+
|  Inner_Iter|    rms[Rho]|   rms[RhoU]|   rms[RhoV]|   rms[RhoE]|          CD|          CL|         CMz|   LinSolRes|
+--------------------------------------------------------------------------------------------------------------------+
|        4925|   -8.397008|   -7.716887|   -8.169007|   -8.008717|    0.300335|    1.459608|    0.757160|   -0.365183|
|        4950|   -8.315278|   -7.671966|   -8.093765|   -7.928596|    0.300093|    1.460502|    0.757329|   -0.323935|
[...]
|  Inner_Iter|    rms[Rho]|   rms[RhoU]|   rms[RhoV]|   rms[RhoE]|          CD|          CL|         CMz|   LinSolRes|
+--------------------------------------------------------------------------------------------------------------------+
|       23625|   -7.820091|   -7.156934|   -7.654083|   -7.438896|    0.192150|    1.814352|    0.799975|   -0.344840|
|       23650|   -7.828880|   -7.153933|   -7.631757|   -7.451216|    0.191204|    1.818564|    0.800727|   -0.497617|
|       23675|   -7.861057|   -7.151793|   -7.627899|   -7.485655|    0.190257|    1.822745|    0.801473|   -0.383418|
|       23700|   -7.816921|   -7.146260|   -7.624202|   -7.437692|    0.189362|    1.827076|    0.802323|   -0.324023|
+-----------------------------------------------------------------------+
|        File Writing Summary       |              Filename             |
+-----------------------------------------------------------------------+
|SU2 binary restart                 |restart.dat                        |
|Paraview                           |vol_solution.vtu                   |
|Paraview surface                   |surface.vtu                        |
+-----------------------------------------------------------------------+
+--------------------------------------------------------------------------------------------------------------------+
|  Inner_Iter|    rms[Rho]|   rms[RhoU]|   rms[RhoV]|   rms[RhoE]|          CD|          CL|         CMz|   LinSolRes|
+--------------------------------------------------------------------------------------------------------------------+
|       23725|   -7.838311|   -7.146033|   -7.618650|   -7.461917|    0.188381|    1.831369|    0.803068|   -0.341947|
|       23750|   -7.803757|   -7.150465|   -7.618140|   -7.424282|    0.187373|    1.835510|    0.803733|   -0.414744|
|       23775|   -7.807522|   -7.148944|   -7.648080|   -7.426172|    0.186435|    1.839845|    0.804552|   -0.344244|
|       23800|   -7.790944|   -7.143758|   -7.626572|   -7.408985|    0.185508|    1.844268|    0.805420|   -0.423752|
+-----------------------------------------------------------------------+
|        File Writing Summary       |              Filename             |
+-----------------------------------------------------------------------+
|SU2 binary restart                 |restart.dat                        |
|Paraview                           |vol_solution.vtu                   |
|Paraview surface                   |surface.vtu                        |
+-----------------------------------------------------------------------+
+--------------------------------------------------------------------------------------------------------------------+
|  Inner_Iter|    rms[Rho]|   rms[RhoU]|   rms[RhoV]|   rms[RhoE]|          CD|          CL|         CMz|   LinSolRes|
+--------------------------------------------------------------------------------------------------------------------+
|       23825|   -7.811092|   -7.143483|   -7.610344|   -7.432101|    0.184547|    1.848623|    0.806215|   -0.374295|
|       23850|   -7.823165|   -7.143963|   -7.609962|   -7.446603|    0.183602|    1.853040|    0.807052|   -0.380487|
|       23875|   -7.769178|   -7.142556|   -7.620849|   -7.387217|    0.182663|    1.857580|    0.807943|   -0.420958|
|       23900|   -7.809879|   -7.141694|   -7.614000|   -7.431029|    0.181725|    1.862122|    0.808831|   -0.329444|
+-----------------------------------------------------------------------+
|        File Writing Summary       |              Filename             |
+-----------------------------------------------------------------------+
|SU2 binary restart                 |restart.dat                        |
|Paraview                           |vol_solution.vtu                   |
|Paraview surface                   |surface.vtu                        |
+-----------------------------------------------------------------------+
+--------------------------------------------------------------------------------------------------------------------+
|  Inner_Iter|    rms[Rho]|   rms[RhoU]|   rms[RhoV]|   rms[RhoE]|          CD|          CL|         CMz|   LinSolRes|
+--------------------------------------------------------------------------------------------------------------------+
|       23925|   -7.816803|   -7.136128|   -7.585397|   -7.441941|    0.180790|    1.866664|    0.809735|   -0.439313|
|       23950|   -7.825212|   -7.139917|   -7.609341|   -7.449089|    0.179872|    1.871345|    0.810700|   -0.367901|
|       23975|   -7.816188|   -7.140955|   -7.595645|   -7.440274|    0.178889|    1.875895|    0.811544|   -0.427676|
|       24000|   -7.810456|   -7.143773|   -7.619671|   -7.432370|    0.177899|    1.880398|    0.812384|   -0.383672|
+-----------------------------------------------------------------------+
|        File Writing Summary       |              Filename             |
+-----------------------------------------------------------------------+
|SU2 binary restart                 |restart.dat                        |
|Paraview                           |vol_solution.vtu                   |
|Paraview surface                   |surface.vtu                        |
+-----------------------------------------------------------------------+
+--------------------------------------------------------------------------------------------------------------------+
|  Inner_Iter|    rms[Rho]|   rms[RhoU]|   rms[RhoV]|   rms[RhoE]|          CD|          CL|         CMz|   LinSolRes|
+--------------------------------------------------------------------------------------------------------------------+
|       24025|   -7.868324|   -7.145133|   -7.633988|   -7.497229|    0.176958|    1.885070|    0.813341|   -0.351135|
|       24050|   -7.820661|   -7.141255|   -7.613795|   -7.443392|    0.176028|    1.889789|    0.814310|   -0.372412|
|       24075|   -7.801359|   -7.138244|   -7.592306|   -7.425847|    0.175120|    1.894482|    0.815300|   -0.404275|
|       24100|   -7.781464|   -7.133369|   -7.587905|   -7.403011|    0.174234|    1.899333|    0.816369|   -0.471542|
+-----------------------------------------------------------------------+
|        File Writing Summary       |              Filename             |
+-----------------------------------------------------------------------+
|SU2 binary restart                 |restart.dat                        |
|Paraview                           |vol_solution.vtu                   |
|Paraview surface                   |surface.vtu                        |
+-----------------------------------------------------------------------+
+--------------------------------------------------------------------------------------------------------------------+
|  Inner_Iter|    rms[Rho]|   rms[RhoU]|   rms[RhoV]|   rms[RhoE]|          CD|          CL|         CMz|   LinSolRes|
+--------------------------------------------------------------------------------------------------------------------+
|       24125|   -7.781527|   -7.133804|   -7.590391|   -7.403652|    0.173293|    1.904114|    0.817352|   -0.366824|
|       24150|   -7.807581|   -7.139284|   -7.606981|   -7.431952|    0.172327|    1.908889|    0.818301|   -0.337762|
|       24175|   -7.844763|   -7.141464|   -7.622905|   -7.471788|    0.171371|    1.913675|    0.819291|   -0.346207|
|       24200|   -7.824032|   -7.139267|   -7.614862|   -7.450397|    0.170462|    1.918562|    0.820363|   -0.347904|
+-----------------------------------------------------------------------+
|        File Writing Summary       |              Filename             |
+-----------------------------------------------------------------------+
|SU2 binary restart                 |restart.dat                        |
|Paraview                           |vol_solution.vtu                   |
|Paraview surface                   |surface.vtu                        |
+-----------------------------------------------------------------------+
+--------------------------------------------------------------------------------------------------------------------+
|  Inner_Iter|    rms[Rho]|   rms[RhoU]|   rms[RhoV]|   rms[RhoE]|          CD|          CL|         CMz|   LinSolRes|
+--------------------------------------------------------------------------------------------------------------------+
|       24225|   -7.801151|   -7.134871|   -7.591421|   -7.424109|    0.169557|    1.923486|    0.821447|   -0.366133|
|       24250|   -7.801635|   -7.134847|   -7.577229|   -7.425933|    0.168639|    1.928369|    0.822507|   -0.386077|
|       24275|   -7.814961|   -7.133949|   -7.585745|   -7.440544|    0.167757|    1.933412|    0.823654|   -0.396534|
|       24300|   -7.790095|   -7.134064|   -7.576580|   -7.414842|    0.166796|    1.938353|    0.824682|   -0.474059|
+-----------------------------------------------------------------------+
|        File Writing Summary       |              Filename             |
+-----------------------------------------------------------------------+
|SU2 binary restart                 |restart.dat                        |
|Paraview                           |vol_solution.vtu                   |
|Paraview surface                   |surface.vtu                        |
+-----------------------------------------------------------------------+
+--------------------------------------------------------------------------------------------------------------------+
|  Inner_Iter|    rms[Rho]|   rms[RhoU]|   rms[RhoV]|   rms[RhoE]|          CD|          CL|         CMz|   LinSolRes|
+--------------------------------------------------------------------------------------------------------------------+
|       24325|   -7.814591|   -7.137564|   -7.599400|   -7.440110|    0.165907|    1.943384|    0.825831|   -0.401560|
|       24350|   -7.822221|   -7.136570|   -7.602074|   -7.449879|    0.165008|    1.948498|    0.827012|   -0.340438|
|       24375|   -7.814018|   -7.136304|   -7.575533|   -7.441379|    0.164083|    1.953541|    0.828122|   -0.378715|
|       24400|   -7.818546|   -7.138419|   -7.582269|   -7.446369|    0.163171|    1.958606|    0.829258|   -0.361349|
+-----------------------------------------------------------------------+
|        File Writing Summary       |              Filename             |
+-----------------------------------------------------------------------+
|SU2 binary restart                 |restart.dat                        |
|Paraview                           |vol_solution.vtu                   |
|Paraview surface                   |surface.vtu                        |
+-----------------------------------------------------------------------+
+--------------------------------------------------------------------------------------------------------------------+
|  Inner_Iter|    rms[Rho]|   rms[RhoU]|   rms[RhoV]|   rms[RhoE]|          CD|          CL|         CMz|   LinSolRes|
+--------------------------------------------------------------------------------------------------------------------+
|       24425|   -7.794787|   -7.139955|   -7.596124|   -7.418954|    0.162278|    1.963751|    0.830453|   -0.353876|
|       24450|   -7.739762|   -7.135958|   -7.591161|   -7.359192|    0.161384|    1.968912|    0.831654|   -0.392224|
|       24475|   -7.816376|   -7.138794|   -7.582892|   -7.443545|    0.160485|    1.974061|    0.832836|   -0.359365|
|       24500|   -7.799562|   -7.133474|   -7.565347|   -7.426897|    0.159604|    1.979271|    0.834071|   -0.473340|
+-----------------------------------------------------------------------+
|        File Writing Summary       |              Filename             |
+-----------------------------------------------------------------------+
|SU2 binary restart                 |restart.dat                        |
|Paraview                           |vol_solution.vtu                   |
|Paraview surface                   |surface.vtu                        |
+-----------------------------------------------------------------------+
+--------------------------------------------------------------------------------------------------------------------+
|  Inner_Iter|    rms[Rho]|   rms[RhoU]|   rms[RhoV]|   rms[RhoE]|          CD|          CL|         CMz|   LinSolRes|
+--------------------------------------------------------------------------------------------------------------------+
|       24525|   -7.805861|   -7.137434|   -7.578738|   -7.432684|    0.158734|    1.984566|    0.835348|   -0.392365|
|       24550|   -7.812678|   -7.139590|   -7.582248|   -7.440338|    0.157805|    1.989770|    0.836533|   -0.390969|
|       24575|   -7.803252|   -7.141231|   -7.591970|   -7.429261|    0.156927|    1.995031|    0.837794|   -0.389557|
|       24600|   -7.852697|   -7.142406|   -7.596425|   -7.486371|    0.156080|    2.000406|    0.839132|   -0.417008|
+-----------------------------------------------------------------------+
|        File Writing Summary       |              Filename             |
+-----------------------------------------------------------------------+
|SU2 binary restart                 |restart.dat                        |
|Paraview                           |vol_solution.vtu                   |
|Paraview surface                   |surface.vtu                        |
+-----------------------------------------------------------------------+
+--------------------------------------------------------------------------------------------------------------------+
|  Inner_Iter|    rms[Rho]|   rms[RhoU]|   rms[RhoV]|   rms[RhoE]|          CD|          CL|         CMz|   LinSolRes|
+--------------------------------------------------------------------------------------------------------------------+
|       24625|   -7.801002|   -7.141830|   -7.580120|   -7.428421|    0.155201|    2.005697|    0.840391|   -0.368794|
|       24650|   -7.825980|   -7.142971|   -7.584013|   -7.457102|    0.154320|    2.011019|    0.841682|   -0.414100|
|       24675|   -7.802133|   -7.140940|   -7.581424|   -7.429193|    0.153478|    2.016503|    0.843080|   -0.363847|
|       24700|   -7.775153|   -7.139549|   -7.570378|   -7.399707|    0.152622|    2.022029|    0.844463|   -0.421724|
+-----------------------------------------------------------------------+
|        File Writing Summary       |              Filename             |
+-----------------------------------------------------------------------+
|SU2 binary restart                 |restart.dat                        |
|Paraview                           |vol_solution.vtu                   |
|Paraview surface                   |surface.vtu                        |
+-----------------------------------------------------------------------+
+--------------------------------------------------------------------------------------------------------------------+
|  Inner_Iter|    rms[Rho]|   rms[RhoU]|   rms[RhoV]|   rms[RhoE]|          CD|          CL|         CMz|   LinSolRes|
+--------------------------------------------------------------------------------------------------------------------+
|       24725|   -7.755073|   -7.140877|   -7.567716|   -7.377838|    0.151745|    2.027406|    0.845776|   -0.401743|
|       24750|   -7.806462|   -7.144449|   -7.577615|   -7.434239|    0.150888|    2.032881|    0.847147|   -0.412959|
|       24775|   -7.793171|   -7.145126|   -7.588218|   -7.418477|    0.150037|    2.038322|    0.848527|   -0.371347|
|       24800|   -7.846576|   -7.147002|   -7.588778|   -7.481624|    0.149225|    2.043916|    0.849998|   -0.330260|
+-----------------------------------------------------------------------+
|        File Writing Summary       |              Filename             |
+-----------------------------------------------------------------------+
|SU2 binary restart                 |restart.dat                        |
|Paraview                           |vol_solution.vtu                   |
|Paraview surface                   |surface.vtu                        |
+-----------------------------------------------------------------------+
+--------------------------------------------------------------------------------------------------------------------+
|  Inner_Iter|    rms[Rho]|   rms[RhoU]|   rms[RhoV]|   rms[RhoE]|          CD|          CL|         CMz|   LinSolRes|
+--------------------------------------------------------------------------------------------------------------------+
|       24825|   -7.750963|   -7.143222|   -7.560076|   -7.374050|    0.148355|    2.049395|    0.851370|   -0.440211|
|       24850|   -7.788498|   -7.147019|   -7.574139|   -7.414623|    0.147533|    2.054937|    0.852810|   -0.360004|
|       24875|   -7.811940|   -7.148764|   -7.582864|   -7.441664|    0.146692|    2.060571|    0.854280|   -0.353166|
|       24900|   -7.799898|   -7.149282|   -7.573628|   -7.428940|    0.145869|    2.066190|    0.855761|   -0.352436|
+-----------------------------------------------------------------------+
|        File Writing Summary       |              Filename             |
+-----------------------------------------------------------------------+
|SU2 binary restart                 |restart.dat                        |
|Paraview                           |vol_solution.vtu                   |
|Paraview surface                   |surface.vtu                        |
+-----------------------------------------------------------------------+
+--------------------------------------------------------------------------------------------------------------------+
|  Inner_Iter|    rms[Rho]|   rms[RhoU]|   rms[RhoV]|   rms[RhoE]|          CD|          CL|         CMz|   LinSolRes|
+--------------------------------------------------------------------------------------------------------------------+
|       24925|   -7.811673|   -7.149740|   -7.570312|   -7.442260|    0.145048|    2.071817|    0.857250|   -0.389492|
|       24950|   -7.801451|   -7.151927|   -7.572290|   -7.430328|    0.144212|    2.077421|    0.858706|   -0.382210|
|       24975|   -7.817004|   -7.155504|   -7.576993|   -7.447844|    0.143392|    2.083011|    0.860181|   -0.381694|
|       24999|   -7.797861|   -7.156417|   -7.583878|   -7.426178|    0.142619|    2.088460|    0.861646|   -0.402568|

----------------------------- Solver Exit -------------------------------

Maximum number of iterations reached (ITER = 25000) before convergence.
+-----------------------------------------------------------------------+
|      Convergence Field     |     Value    |   Criterion  |  Converged |
+-----------------------------------------------------------------------+
|                  Cauchy[CL]|   0.000107606|       < 5e-07|          No|
+-----------------------------------------------------------------------+
-------------------------------------------------------------------------
+-----------------------------------------------------------------------+
|        File Writing Summary       |              Filename             |
+-----------------------------------------------------------------------+
|SU2 binary restart                 |restart.dat                        |
|Paraview                           |vol_solution.vtu                   |
|Paraview surface                   |surface.vtu                        |
+-----------------------------------------------------------------------+

------------------------- Solver Postprocessing -------------------------
Deleted CNumerics container.
Deleted CIntegration container.
Deleted CSolver container.
Deleted CIteration container.
Deleted CInterface container.
Deleted CGeometry container.
Deleted CFreeFormDefBox class.
Deleted CSurfaceMovement class.
Deleted CVolumetricMovement class.
Deleted CConfig container.
Deleted nInst container.
Deleted COutput class.
-------------------------------------------------------------------------

------------------------- Exit Success (SU2_CFD) ------------------------

