WARNING: The current SST-1994m model is inconsistent with literature. We recommend using the SST-2003m model.
In SU2 v8 the 2003m model will become default, and the inconsistency will be fixed.

-------------------------------------------------------------------------
|    ___ _   _ ___                                                      |
|   / __| | | |_  )   Release 7.4.0 "Blackbird"                         |
|   \__ \ |_| |/ /                                                      |
|   |___/\___//___|   Suite (Computational Fluid Dynamics Code)         |
|                                                                       |
-------------------------------------------------------------------------
| SU2 Project Website: https://su2code.github.io                        |
|                                                                       |
| The SU2 Project is maintained by the SU2 Foundation                   |
| (http://su2foundation.org)                                            |
-------------------------------------------------------------------------
| Copyright 2012-2022, SU2 Contributors                                 |
|                                                                       |
| SU2 is free software; you can redistribute it and/or                  |
| modify it under the terms of the GNU Lesser General Public            |
| License as published by the Free Software Foundation; either          |
| version 2.1 of the License, or (at your option) any later version.    |
|                                                                       |
| SU2 is distributed in the hope that it will be useful,                |
| but WITHOUT ANY WARRANTY; without even the implied warranty of        |
| MERCHANTABILITY or FITNESS FOR A PARTICULAR PURPOSE. See the GNU      |
| Lesser General Public License for more details.                       |
|                                                                       |
| You should have received a copy of the GNU Lesser General Public      |
| License along with SU2. If not, see <http://www.gnu.org/licenses/>.   |
-------------------------------------------------------------------------
WARNING: The current SST-1994m model is inconsistent with literature. We recommend using the SST-2003m model.
In SU2 v8 the 2003m model will become default, and the inconsistency will be fixed.

Parsing config file for zone 0
WARNING: The current SST-1994m model is inconsistent with literature. We recommend using the SST-2003m model.
In SU2 v8 the 2003m model will become default, and the inconsistency will be fixed.

----------------- Physical Case Definition ( Zone 0 ) -------------------
Compressible RANS equations.
Turbulence model: Menter's k-omega SST-1994m with no production modification.
Hybrid RANS/LES: No Hybrid RANS/LES
Mach number: 0.2.
Angle of attack (AoA): 11 deg, and angle of sideslip (AoS): 0 deg.
Reynolds number: 1.22082e+07. Reference length 2.62.
Reading and writing binary SU2 native restart files.
Read flow solution from: solution_flow.
Non-Dimensional simulation (V=Mach, Rho=1.0, T=1.0 at the farfield).
The reference area is 2.62 m^2.
The semi-span will be computed using the max y(3D) value.
The reference length is 2.62 m.
Reference origin for moment evaluation is (0, 0, 0).
Surface(s) where the force coefficients are evaluated: wall.

Surface(s) plotted in the output file: wall.
Input mesh file name: su2meshEx.su2

--------------- Space Numerical Integration ( Zone 0 ) ------------------
Roe (with entropy fix = 1e-05) solver for the flow inviscid terms.
Standard Roe without low-dissipation function.
Second order integration in space, with slope limiter.
Van Albada slope-limiting method implemented by edges.
Scalar upwind solver for the turbulence model.
First order integration in space.
Average of gradients with correction (viscous flow terms).
Average of gradients with correction (viscous turbulence terms).
Gradient for upwind reconstruction: Green-Gauss.
Gradient for viscous and source terms: Green-Gauss.

--------------- Time Numerical Integration  ( Zone 0 ) ------------------
Local time stepping (steady state simulation).
Euler implicit method for the flow equations.
FGMRES is used for solving the linear system.
Using a ILU(0) preconditioning.
Convergence criteria of the linear solver: 0.2.
Max number of linear iterations: 4.
CFL adaptation. Factor down: 0.1, factor up: 1.2,
                lower limit: 25, upper limit: 1000,
                acceptable linear residual: 0.001.
Courant-Friedrichs-Lewy number:       25
Euler implicit time integration for the turbulence model.

------------------ Convergence Criteria  ( Zone 0 ) ---------------------
Maximum number of solver subiterations: 50000.
Begin convergence monitoring at iteration 10.
Residual minimum value: 1e-11.5.
Cauchy series min. value: 5e-07.
Number of Cauchy elements: 500.
Begin windowed time average at iteration 0.

-------------------- Output Information ( Zone 0 ) ----------------------
File writing frequency: 
+------------------------------------+
|                     File| Frequency|
+------------------------------------+
|                  RESTART|       100|
|                 PARAVIEW|       100|
|         SURFACE_PARAVIEW|       100|
+------------------------------------+
Writing the convergence history file every 1 inner iterations.
Writing the screen convergence history every 25 inner iterations.
The tabular file format is CSV (.csv).
Convergence history file name: history.
Forces breakdown file name: forces_breakdown.dat.
Surface file name: surface.
Volume file name: vol_solution.
Restart file name: restart.dat.

------------- Config File Boundary Information ( Zone 0 ) ---------------
+-----------------------------------------------------------------------+
|                        Marker Type|                        Marker Name|
+-----------------------------------------------------------------------+
|                          Far-field|                          far-field|
+-----------------------------------------------------------------------+
|                     Heat flux wall|                               wall|
+-----------------------------------------------------------------------+

-------------------- Output Preprocessing ( Zone 0 ) --------------------

WARNING: SURFACE_PRESSURE_DROP can only be computed for at least 2 surfaces (outlet, inlet, ...)

  Info: Ignoring the following screen output fields:
  RMS_NU_TILDE
Screen output fields: INNER_ITER, RMS_DENSITY, RMS_MOMENTUM-X, RMS_MOMENTUM-Y, RMS_ENERGY, DRAG, LIFT, MOMENT_Z, LINSOL_RESIDUAL
History output group(s): ITER, RMS_RES, AERO_COEFF
Convergence field(s): LIFT
Warning: No (valid) fields chosen for time convergence monitoring. Time convergence monitoring inactive.
Volume output fields: COORDINATES, SOLUTION, PRIMITIVE

------------------- Geometry Preprocessing ( Zone 0 ) -------------------
Two dimensional problem.
82001 grid points before partitioning.
110096 volume elements before partitioning.
2 surface markers.
76 boundary elements in index 0 (Marker = far-field).
723 boundary elements in index 1 (Marker = wall).
Executing the partitioning functions.
Building the graph adjacency structure.
Calling ParMETIS... graph partitioning complete (1791 edge cuts).
Distributing ParMETIS coloring.
Rebalancing vertices.
Rebalancing volume element connectivity.
Rebalancing markers and surface elements.
84501 vertices including ghost points. 
111887 interior elements including halo cells. 
58082 triangles.
53805 quadrilaterals.
Establishing MPI communication patterns.
Setting point connectivity.
Renumbering points (Reverse Cuthill McKee Ordering).
Recomputing point connectivity.
Setting element connectivity.
Checking the numerical grid orientation.
All volume elements are correctly orientend.
All surface elements are correctly orientend.
Identifying edges and vertices.
Setting the control volume structure.
Area of the computational grid: 98853.7.
Searching for the closest normal neighbors to the surfaces.
Storing a mapping from global to local point index.
Compute the surface curvature.
Max K: 1170.36. Mean K: 8.52212. Standard deviation K: 78.5888.
Checking for periodicity.
Computing mesh quality statistics for the dual control volumes.
+--------------------------------------------------------------+
|           Mesh Quality Metric|        Minimum|        Maximum|
+--------------------------------------------------------------+
|    Orthogonality Angle (deg.)|        60.5564|             90|
|     CV Face Area Aspect Ratio|        1.00119|        10426.8|
|           CV Sub-Volume Ratio|              1|        5.72924|
+--------------------------------------------------------------+
Finding max control volume width.
Communicating number of neighbors.
Wetted area = 6.32542 m.
Area projection in the x-plane = 0.630114 m, y-plane = 2.96262 m.
Max. coordinate in the x-direction = 2.9339 m, y-direction = 0.165086 m.
Min. coordinate in the x-direction = 0 m, y-direction = -0.309055 m.
Computing wall distances.

-------------------- Solver Preprocessing ( Zone 0 ) --------------------
Viscous flow: Computing pressure using the ideal gas law
based on the free-stream temperature and a density computed
from the Reynolds number.
Force coefficients computed using free-stream values.

-- Models:
+------------------------------------------------------------------------------+
|          Viscosity Model|        Conductivity Model|              Fluid Model|
+------------------------------------------------------------------------------+
|               SUTHERLAND|          CONSTANT_PRANDTL|             STANDARD_AIR|
+------------------------------------------------------------------------------+
-- Fluid properties:
+------------------------------------------------------------------------------+
|                  Name|    Dim. value|    Ref. value|      Unit|Non-dim. value|
+------------------------------------------------------------------------------+
|        Ref. Viscosity|     1.716e-05|       416.883|   N.s/m^2|   4.11626e-08|
|      Sutherland Temp.|        273.15|        288.16|         K|      0.947911|
|     Sutherland Const.|         110.4|        288.16|         K|       0.38312|
+------------------------------------------------------------------------------+
|        Prandtl (Lam.)|             -|             -|         -|          0.72|
|       Prandtl (Turb.)|             -|             -|         -|           0.9|
+------------------------------------------------------------------------------+
|          Gas Constant|       287.058|       401.881|  N.m/kg.K|      0.714286|
|      Spec. Heat Ratio|             -|             -|         -|           1.4|
+------------------------------------------------------------------------------+
-- Initial and free-stream conditions:
+------------------------------------------------------------------------------+
|                  Name|    Dim. value|    Ref. value|      Unit|Non-dim. value|
+------------------------------------------------------------------------------+
|       Static Pressure|        101333|        141867|        Pa|      0.714286|
|               Density|       1.22504|       1.22504|    kg/m^3|             1|
|           Temperature|        288.16|        288.16|         K|             1|
|          Total Energy|        209130|        115806|   m^2/s^2|       1.80586|
|            Velocity-X|       66.8101|       340.303|       m/s|      0.196325|
|            Velocity-Y|       12.9866|       340.303|       m/s|     0.0381618|
|    Velocity Magnitude|       68.0606|       340.303|       m/s|           0.2|
+------------------------------------------------------------------------------+
|             Viscosity|   1.78935e-05|       416.883|   N.s/m^2|    4.2922e-08|
|          Conductivity|             -|        167537|   W/m^2.K|             -|
|     Turb. Kin. Energy|       17.3709|        115806|   m^2/s^2|       0.00015|
|     Spec. Dissipation|        118926|       340.303|       1/s|       349.471|
+------------------------------------------------------------------------------+
|           Mach Number|             -|             -|         -|           0.2|
|       Reynolds Number|             -|             -|         -|   1.22082e+07|
+------------------------------------------------------------------------------+
Initialize Jacobian structure (Navier-Stokes). MG level: 0.
Initialize Jacobian structure (SST model).

------------------- Numerics Preprocessing ( Zone 0 ) -------------------

----------------- Integration Preprocessing ( Zone 0 ) ------------------

------------------- Iteration Preprocessing ( Zone 0 ) ------------------
Euler/Navier-Stokes/RANS fluid iteration.

------------------------------ Begin Solver -----------------------------

Simulation Run using the Single-zone Driver
WARNING: SU2 was not compiled for an AVX-capable architecture.
+--------------------------------------------------------------------------------------------------------------------+
|  Inner_Iter|    rms[Rho]|   rms[RhoU]|   rms[RhoV]|   rms[RhoE]|          CD|          CL|         CMz|   LinSolRes|
+--------------------------------------------------------------------------------------------------------------------+
|           0|   -3.211578|   -3.744525|   -3.204499|   -2.809617|    0.322027|    1.285888|    0.711026|   -0.990265|
|          25|   -5.840464|   -5.073265|   -5.182361|   -5.391394|    0.336257|    1.342201|    0.744608|   -0.689805|
|          50|   -6.462330|   -5.527962|   -5.893924|   -5.930983|    0.323816|    1.363626|    0.733431|   -0.619713|
|          75|   -6.888721|   -5.892549|   -6.257858|   -6.357596|    0.323568|    1.379764|    0.744519|   -0.650565|
|         100|   -6.908193|   -6.094317|   -6.331792|   -6.471999|    0.315917|    1.348548|    0.723468|   -0.674789|
+-----------------------------------------------------------------------+
|        File Writing Summary       |              Filename             |
+-----------------------------------------------------------------------+
|SU2 binary restart                 |restart.dat                        |
|Paraview                           |vol_solution.vtu                   |
|Paraview surface                   |surface.vtu                        |
+-----------------------------------------------------------------------+
+--------------------------------------------------------------------------------------------------------------------+
|  Inner_Iter|    rms[Rho]|   rms[RhoU]|   rms[RhoV]|   rms[RhoE]|          CD|          CL|         CMz|   LinSolRes|
+--------------------------------------------------------------------------------------------------------------------+
|         125|   -6.975001|   -6.193555|   -6.465971|   -6.530955|    0.325875|    1.384943|    0.746079|   -0.824537|
|         150|   -7.235338|   -6.518388|   -6.645054|   -6.823459|    0.322532|    1.393575|    0.742502|   -0.671112|
|         175|   -7.315209|   -6.561579|   -6.805222|   -6.941078|    0.324849|    1.411728|    0.751597|   -0.758565|
|         200|   -7.296490|   -6.542440|   -6.785510|   -6.932198|    0.327519|    1.432411|    0.762580|   -0.521707|
+-----------------------------------------------------------------------+
|        File Writing Summary       |              Filename             |
+-----------------------------------------------------------------------+
|SU2 binary restart                 |restart.dat                        |
|Paraview                           |vol_solution.vtu                   |
|Paraview surface                   |surface.vtu                        |
+-----------------------------------------------------------------------+
+--------------------------------------------------------------------------------------------------------------------+
|  Inner_Iter|    rms[Rho]|   rms[RhoU]|   rms[RhoV]|   rms[RhoE]|          CD|          CL|         CMz|   LinSolRes|
+--------------------------------------------------------------------------------------------------------------------+
|         225|   -7.211945|   -6.539514|   -6.699035|   -6.835845|    0.327795|    1.436162|    0.762801|   -0.812101|
|         250|   -7.453117|   -6.605783|   -6.888108|   -7.043796|    0.329436|    1.446437|    0.769308|   -0.691547|
|         275|   -7.469330|   -6.771205|   -7.082151|   -7.175161|    0.327846|    1.442607|    0.766063|   -0.643156|
|         300|   -7.512771|   -6.824553|   -7.042229|   -7.164117|    0.329290|    1.442311|    0.768004|   -0.522522|
+-----------------------------------------------------------------------+
|        File Writing Summary       |              Filename             |
+-----------------------------------------------------------------------+
|SU2 binary restart                 |restart.dat                        |
|Paraview                           |vol_solution.vtu                   |
|Paraview surface                   |surface.vtu                        |
+-----------------------------------------------------------------------+
+--------------------------------------------------------------------------------------------------------------------+
|  Inner_Iter|    rms[Rho]|   rms[RhoU]|   rms[RhoV]|   rms[RhoE]|          CD|          CL|         CMz|   LinSolRes|
+--------------------------------------------------------------------------------------------------------------------+
|         325|   -7.604679|   -6.864826|   -7.061237|   -7.229063|    0.329913|    1.441905|    0.769768|   -0.624925|
|         350|   -7.473000|   -6.704915|   -6.931055|   -7.067103|    0.328740|    1.431642|    0.764793|   -0.703320|
|         375|   -7.497777|   -6.702703|   -6.886245|   -7.100597|    0.328618|    1.424157|    0.763077|   -0.632063|
|         400|   -7.490078|   -6.801120|   -6.931234|   -7.127454|    0.329636|    1.421421|    0.764102|   -0.640704|
+-----------------------------------------------------------------------+
|        File Writing Summary       |              Filename             |
+-----------------------------------------------------------------------+
|SU2 binary restart                 |restart.dat                        |
|Paraview                           |vol_solution.vtu                   |
|Paraview surface                   |surface.vtu                        |
+-----------------------------------------------------------------------+
+--------------------------------------------------------------------------------------------------------------------+
|  Inner_Iter|    rms[Rho]|   rms[RhoU]|   rms[RhoV]|   rms[RhoE]|          CD|          CL|         CMz|   LinSolRes|
+--------------------------------------------------------------------------------------------------------------------+
|         425|   -7.518684|   -6.797776|   -7.069489|   -7.117830|    0.327789|    1.408193|    0.757564|   -0.770691|
|         450|   -7.515851|   -6.798733|   -7.032682|   -7.160830|    0.327257|    1.398860|    0.754442|   -0.635032|
|         475|   -7.486263|   -6.830653|   -7.005667|   -7.145993|    0.326565|    1.391591|    0.751833|   -0.603132|
|         500|   -7.548183|   -6.845984|   -7.214830|   -7.184776|    0.325040|    1.380722|    0.746188|   -0.543558|
+-----------------------------------------------------------------------+
|        File Writing Summary       |              Filename             |
+-----------------------------------------------------------------------+
|SU2 binary restart                 |restart.dat                        |
|Paraview                           |vol_solution.vtu                   |
|Paraview surface                   |surface.vtu                        |
+-----------------------------------------------------------------------+
+--------------------------------------------------------------------------------------------------------------------+
|  Inner_Iter|    rms[Rho]|   rms[RhoU]|   rms[RhoV]|   rms[RhoE]|          CD|          CL|         CMz|   LinSolRes|
+--------------------------------------------------------------------------------------------------------------------+
|         525|   -7.586219|   -6.917266|   -7.272185|   -7.251501|    0.324567|    1.375653|    0.744456|   -0.596766|
|         550|   -7.574927|   -6.940440|   -7.281866|   -7.231332|    0.324056|    1.372742|    0.742938|   -0.662679|
|         575|   -7.728452|   -7.043943|   -7.354601|   -7.355274|    0.323136|    1.368841|    0.740265|   -0.475761|
|         600|   -7.763438|   -7.094422|   -7.436319|   -7.399464|    0.323380|    1.371205|    0.741487|   -0.630477|
+-----------------------------------------------------------------------+
|        File Writing Summary       |              Filename             |
+-----------------------------------------------------------------------+
|SU2 binary restart                 |restart.dat                        |
|Paraview                           |vol_solution.vtu                   |
|Paraview surface                   |surface.vtu                        |
+-----------------------------------------------------------------------+
+--------------------------------------------------------------------------------------------------------------------+
|  Inner_Iter|    rms[Rho]|   rms[RhoU]|   rms[RhoV]|   rms[RhoE]|          CD|          CL|         CMz|   LinSolRes|
+--------------------------------------------------------------------------------------------------------------------+
|         625|   -7.849839|   -7.113264|   -7.371827|   -7.483734|    0.322680|    1.372497|    0.740923|   -0.393455|
|         650|   -7.804675|   -7.188628|   -7.414822|   -7.444153|    0.322246|    1.373945|    0.740572|   -0.468552|
|         675|   -7.789852|   -7.084055|   -7.412434|   -7.419983|    0.322612|    1.379744|    0.743025|   -0.563673|
|         700|   -7.746783|   -7.067616|   -7.312450|   -7.374795|    0.322193|    1.383748|    0.743660|   -0.576424|
+-----------------------------------------------------------------------+
|        File Writing Summary       |              Filename             |
+-----------------------------------------------------------------------+
|SU2 binary restart                 |restart.dat                        |
|Paraview                           |vol_solution.vtu                   |
|Paraview surface                   |surface.vtu                        |
+-----------------------------------------------------------------------+
+--------------------------------------------------------------------------------------------------------------------+
|  Inner_Iter|    rms[Rho]|   rms[RhoU]|   rms[RhoV]|   rms[RhoE]|          CD|          CL|         CMz|   LinSolRes|
+--------------------------------------------------------------------------------------------------------------------+
|         725|   -7.760815|   -7.118977|   -7.344457|   -7.413545|    0.321911|    1.387243|    0.744270|   -0.455764|
|         750|   -7.829969|   -7.058883|   -7.422586|   -7.465074|    0.322491|    1.394171|    0.747394|   -0.356770|
|         775|   -7.759574|   -7.063948|   -7.348208|   -7.395740|    0.322295|    1.398632|    0.748509|   -0.367833|
|         800|   -7.784556|   -7.109297|   -7.387033|   -7.439620|    0.322169|    1.401911|    0.749316|   -0.423230|
+-----------------------------------------------------------------------+
|        File Writing Summary       |              Filename             |
+-----------------------------------------------------------------------+
|SU2 binary restart                 |restart.dat                        |
|Paraview                           |vol_solution.vtu                   |
|Paraview surface                   |surface.vtu                        |
+-----------------------------------------------------------------------+
+--------------------------------------------------------------------------------------------------------------------+
|  Inner_Iter|    rms[Rho]|   rms[RhoU]|   rms[RhoV]|   rms[RhoE]|          CD|          CL|         CMz|   LinSolRes|
+--------------------------------------------------------------------------------------------------------------------+
|         825|   -7.842542|   -7.134308|   -7.548255|   -7.463568|    0.322434|    1.406930|    0.751520|   -0.398443|
|         850|   -7.881029|   -7.209920|   -7.625103|   -7.536184|    0.322402|    1.410033|    0.752532|   -0.378989|
|         875|   -7.844294|   -7.251623|   -7.625748|   -7.488023|    0.322439|    1.412254|    0.753291|   -0.341479|
|         900|   -7.931083|   -7.303588|   -7.775453|   -7.556339|    0.322667|    1.415176|    0.754822|   -0.289377|
+-----------------------------------------------------------------------+
|        File Writing Summary       |              Filename             |
+-----------------------------------------------------------------------+
|SU2 binary restart                 |restart.dat                        |
|Paraview                           |vol_solution.vtu                   |
|Paraview surface                   |surface.vtu                        |
+-----------------------------------------------------------------------+
+--------------------------------------------------------------------------------------------------------------------+
|  Inner_Iter|    rms[Rho]|   rms[RhoU]|   rms[RhoV]|   rms[RhoE]|          CD|          CL|         CMz|   LinSolRes|
+--------------------------------------------------------------------------------------------------------------------+
|         925|   -7.970848|   -7.381098|   -7.847181|   -7.600851|    0.322607|    1.416289|    0.755221|   -0.299766|
|         950|   -8.056686|   -7.445499|   -7.837697|   -7.694880|    0.322655|    1.416791|    0.755571|   -0.331632|
|         975|   -8.097912|   -7.517903|   -7.883095|   -7.714855|    0.322727|    1.417406|    0.756166|   -0.310364|
|        1000|   -8.149749|   -7.550421|   -7.907216|   -7.790151|    0.322480|    1.416220|    0.755655|   -0.352522|
+-----------------------------------------------------------------------+
|        File Writing Summary       |              Filename             |
+-----------------------------------------------------------------------+
|SU2 binary restart                 |restart.dat                        |
|Paraview                           |vol_solution.vtu                   |
|Paraview surface                   |surface.vtu                        |
+-----------------------------------------------------------------------+
+--------------------------------------------------------------------------------------------------------------------+
|  Inner_Iter|    rms[Rho]|   rms[RhoU]|   rms[RhoV]|   rms[RhoE]|          CD|          CL|         CMz|   LinSolRes|
+--------------------------------------------------------------------------------------------------------------------+
|        1025|   -8.100331|   -7.515525|   -7.761409|   -7.730739|    0.322328|    1.414677|    0.755149|   -0.339296|
|        1050|   -8.152305|   -7.610912|   -7.751585|   -7.794105|    0.322212|    1.413423|    0.754917|   -0.428656|
|        1075|   -8.187180|   -7.588201|   -7.885523|   -7.835028|    0.321862|    1.411059|    0.753860|   -0.346374|
|        1100|   -8.099274|   -7.574941|   -7.836666|   -7.728135|    0.321598|    1.408821|    0.752993|   -0.284517|
+-----------------------------------------------------------------------+
|        File Writing Summary       |              Filename             |
+-----------------------------------------------------------------------+
|SU2 binary restart                 |restart.dat                        |
|Paraview                           |vol_solution.vtu                   |
|Paraview surface                   |surface.vtu                        |
+-----------------------------------------------------------------------+
+--------------------------------------------------------------------------------------------------------------------+
|  Inner_Iter|    rms[Rho]|   rms[RhoU]|   rms[RhoV]|   rms[RhoE]|          CD|          CL|         CMz|   LinSolRes|
+--------------------------------------------------------------------------------------------------------------------+
|        1125|   -8.162570|   -7.616246|   -7.821284|   -7.812571|    0.321389|    1.407231|    0.752453|   -0.374232|
|        1150|   -8.163295|   -7.591123|   -7.936603|   -7.790739|    0.320961|    1.405043|    0.751303|   -0.289489|
|        1175|   -8.143149|   -7.613543|   -7.933844|   -7.769553|    0.320722|    1.403602|    0.750694|   -0.270624|
|        1200|   -8.225443|   -7.626334|   -7.925234|   -7.865845|    0.320480|    1.402933|    0.750328|   -0.356175|
+-----------------------------------------------------------------------+
|        File Writing Summary       |              Filename             |
+-----------------------------------------------------------------------+
|SU2 binary restart                 |restart.dat                        |
|Paraview                           |vol_solution.vtu                   |
|Paraview surface                   |surface.vtu                        |
+-----------------------------------------------------------------------+
+--------------------------------------------------------------------------------------------------------------------+
|  Inner_Iter|    rms[Rho]|   rms[RhoU]|   rms[RhoV]|   rms[RhoE]|          CD|          CL|         CMz|   LinSolRes|
+--------------------------------------------------------------------------------------------------------------------+
|        1225|   -8.236009|   -7.648840|   -7.958474|   -7.846991|    0.320064|    1.401815|    0.749508|   -0.310664|
|        1250|   -8.261330|   -7.652541|   -7.995039|   -7.888367|    0.319929|    1.401902|    0.749487|   -0.327304|
|        1275|   -8.219609|   -7.601124|   -7.905635|   -7.840442|    0.319713|    1.402450|    0.749500|   -0.332257|
|        1300|   -8.263882|   -7.664976|   -7.884591|   -7.880996|    0.319321|    1.402454|    0.749051|   -0.396499|
+-----------------------------------------------------------------------+
|        File Writing Summary       |              Filename             |
+-----------------------------------------------------------------------+
|SU2 binary restart                 |restart.dat                        |
|Paraview                           |vol_solution.vtu                   |
|Paraview surface                   |surface.vtu                        |
+-----------------------------------------------------------------------+
+--------------------------------------------------------------------------------------------------------------------+
|  Inner_Iter|    rms[Rho]|   rms[RhoU]|   rms[RhoV]|   rms[RhoE]|          CD|          CL|         CMz|   LinSolRes|
+--------------------------------------------------------------------------------------------------------------------+
|        1325|   -8.291675|   -7.622496|   -7.976751|   -7.920033|    0.319231|    1.403685|    0.749450|   -0.369212|
|        1350|   -8.176124|   -7.569555|   -7.902040|   -7.795382|    0.319030|    1.405029|    0.749725|   -0.308548|
|        1375|   -8.202043|   -7.592083|   -7.861602|   -7.831331|    0.318754|    1.406006|    0.749734|   -0.391688|
|        1400|   -8.196884|   -7.564607|   -7.965537|   -7.825510|    0.318686|    1.407883|    0.750394|   -0.336885|
+-----------------------------------------------------------------------+
|        File Writing Summary       |              Filename             |
+-----------------------------------------------------------------------+
|SU2 binary restart                 |restart.dat                        |
|Paraview                           |vol_solution.vtu                   |
|Paraview surface                   |surface.vtu                        |
+-----------------------------------------------------------------------+
+--------------------------------------------------------------------------------------------------------------------+
|  Inner_Iter|    rms[Rho]|   rms[RhoU]|   rms[RhoV]|   rms[RhoE]|          CD|          CL|         CMz|   LinSolRes|
+--------------------------------------------------------------------------------------------------------------------+
|        1425|   -8.134738|   -7.541577|   -7.921056|   -7.758884|    0.318544|    1.409610|    0.750872|   -0.299165|
|        1450|   -8.145745|   -7.553734|   -7.895760|   -7.779051|    0.318409|    1.411131|    0.751273|   -0.337111|
|        1475|   -8.134873|   -7.547655|   -7.976215|   -7.758682|    0.318358|    1.413030|    0.751987|   -0.290450|
|        1500|   -8.153214|   -7.576529|   -7.999514|   -7.776876|    0.318181|    1.414352|    0.752314|   -0.286486|
+-----------------------------------------------------------------------+
|        File Writing Summary       |              Filename             |
+-----------------------------------------------------------------------+
|SU2 binary restart                 |restart.dat                        |
|Paraview                           |vol_solution.vtu                   |
|Paraview surface                   |surface.vtu                        |
+-----------------------------------------------------------------------+
+--------------------------------------------------------------------------------------------------------------------+
|  Inner_Iter|    rms[Rho]|   rms[RhoU]|   rms[RhoV]|   rms[RhoE]|          CD|          CL|         CMz|   LinSolRes|
+--------------------------------------------------------------------------------------------------------------------+
|        1525|   -8.229410|   -7.613664|   -8.058634|   -7.859078|    0.318028|    1.415445|    0.752603|   -0.319357|
|        1550|   -8.235554|   -7.644612|   -8.135457|   -7.849700|    0.317911|    1.416628|    0.753017|   -0.285256|
|        1575|   -8.292841|   -7.706643|   -8.174089|   -7.915190|    0.317687|    1.417239|    0.753082|   -0.308702|
|        1600|   -8.378554|   -7.754667|   -8.199102|   -8.003989|    0.317554|    1.417860|    0.753279|   -0.338449|
+-----------------------------------------------------------------------+
|        File Writing Summary       |              Filename             |
+-----------------------------------------------------------------------+
|SU2 binary restart                 |restart.dat                        |
|Paraview                           |vol_solution.vtu                   |
|Paraview surface                   |surface.vtu                        |
+-----------------------------------------------------------------------+
+--------------------------------------------------------------------------------------------------------------------+
|  Inner_Iter|    rms[Rho]|   rms[RhoU]|   rms[RhoV]|   rms[RhoE]|          CD|          CL|         CMz|   LinSolRes|
+--------------------------------------------------------------------------------------------------------------------+
|        1625|   -8.352749|   -7.771584|   -8.211199|   -7.963512|    0.317475|    1.418607|    0.753600|   -0.258200|
|        1650|   -8.386032|   -7.805423|   -8.171513|   -8.000969|    0.317250|    1.418766|    0.753518|   -0.308844|
|        1675|   -8.493466|   -7.861287|   -8.211349|   -8.117835|    0.317066|    1.418873|    0.753485|   -0.348772|
|        1700|   -8.498995|   -7.911783|   -8.221066|   -8.108446|    0.316899|    1.419061|    0.753512|   -0.308060|
+-----------------------------------------------------------------------+
|        File Writing Summary       |              Filename             |
+-----------------------------------------------------------------------+
|SU2 binary restart                 |restart.dat                        |
|Paraview                           |vol_solution.vtu                   |
|Paraview surface                   |surface.vtu                        |
+-----------------------------------------------------------------------+
+--------------------------------------------------------------------------------------------------------------------+
|  Inner_Iter|    rms[Rho]|   rms[RhoU]|   rms[RhoV]|   rms[RhoE]|          CD|          CL|         CMz|   LinSolRes|
+--------------------------------------------------------------------------------------------------------------------+
|        1725|   -8.558045|   -7.962949|   -8.304405|   -8.187841|    0.316605|    1.418814|    0.753214|   -0.340678|
|        1750|   -8.576824|   -7.955698|   -8.253682|   -8.201038|    0.316409|    1.418735|    0.753104|   -0.360409|
|        1775|   -8.527583|   -7.919232|   -8.211555|   -8.140263|    0.316273|    1.418968|    0.753183|   -0.317804|
|        1800|   -8.479391|   -7.882016|   -8.168558|   -8.082690|    0.316030|    1.418871|    0.752972|   -0.343435|
+-----------------------------------------------------------------------+
|        File Writing Summary       |              Filename             |
+-----------------------------------------------------------------------+
|SU2 binary restart                 |restart.dat                        |
|Paraview                           |vol_solution.vtu                   |
|Paraview surface                   |surface.vtu                        |
+-----------------------------------------------------------------------+
+--------------------------------------------------------------------------------------------------------------------+
|  Inner_Iter|    rms[Rho]|   rms[RhoU]|   rms[RhoV]|   rms[RhoE]|          CD|          CL|         CMz|   LinSolRes|
+--------------------------------------------------------------------------------------------------------------------+
|        1825|   -8.575524|   -7.966027|   -8.253796|   -8.203067|    0.315807|    1.418842|    0.752833|   -0.361118|
|        1850|   -8.549799|   -7.938343|   -8.272661|   -8.162280|    0.315626|    1.419091|    0.752838|   -0.341450|
|        1875|   -8.563664|   -7.945304|   -8.314894|   -8.188289|    0.315329|    1.419063|    0.752580|   -0.327325|
|        1900|   -8.540075|   -7.919144|   -8.292940|   -8.166026|    0.315077|    1.419212|    0.752462|   -0.386089|
+-----------------------------------------------------------------------+
|        File Writing Summary       |              Filename             |
+-----------------------------------------------------------------------+
|SU2 binary restart                 |restart.dat                        |
|Paraview                           |vol_solution.vtu                   |
|Paraview surface                   |surface.vtu                        |
+-----------------------------------------------------------------------+
+--------------------------------------------------------------------------------------------------------------------+
|  Inner_Iter|    rms[Rho]|   rms[RhoU]|   rms[RhoV]|   rms[RhoE]|          CD|          CL|         CMz|   LinSolRes|
+--------------------------------------------------------------------------------------------------------------------+
|        1925|   -8.493643|   -7.841892|   -8.228885|   -8.115627|    0.314916|    1.419775|    0.752602|   -0.337370|
|        1950|   -8.374360|   -7.765068|   -8.112317|   -7.988797|    0.314729|    1.420260|    0.752631|   -0.318629|
|        1975|   -8.398640|   -7.790889|   -8.114264|   -8.019546|    0.314493|    1.420744|    0.752624|   -0.341049|
|        2000|   -8.453387|   -7.813929|   -8.240135|   -8.075272|    0.314247|    1.421325|    0.752641|   -0.342290|
+-----------------------------------------------------------------------+
|        File Writing Summary       |              Filename             |
+-----------------------------------------------------------------------+
|SU2 binary restart                 |restart.dat                        |
|Paraview                           |vol_solution.vtu                   |
|Paraview surface                   |surface.vtu                        |
+-----------------------------------------------------------------------+
+--------------------------------------------------------------------------------------------------------------------+
|  Inner_Iter|    rms[Rho]|   rms[RhoU]|   rms[RhoV]|   rms[RhoE]|          CD|          CL|         CMz|   LinSolRes|
+--------------------------------------------------------------------------------------------------------------------+
|        2025|   -8.455958|   -7.807632|   -8.249489|   -8.081673|    0.314014|    1.421943|    0.752678|   -0.365943|
|        2050|   -8.388090|   -7.749133|   -8.178587|   -8.013983|    0.313866|    1.422858|    0.752936|   -0.326964|
|        2075|   -8.276845|   -7.687819|   -8.045037|   -7.894055|    0.313725|    1.423869|    0.753230|   -0.299293|
|        2100|   -8.289636|   -7.704311|   -8.040025|   -7.909373|    0.313508|    1.424600|    0.753320|   -0.320086|
+-----------------------------------------------------------------------+
|        File Writing Summary       |              Filename             |
+-----------------------------------------------------------------------+
|SU2 binary restart                 |restart.dat                        |
|Paraview                           |vol_solution.vtu                   |
|Paraview surface                   |surface.vtu                        |
+-----------------------------------------------------------------------+
+--------------------------------------------------------------------------------------------------------------------+
|  Inner_Iter|    rms[Rho]|   rms[RhoU]|   rms[RhoV]|   rms[RhoE]|          CD|          CL|         CMz|   LinSolRes|
+--------------------------------------------------------------------------------------------------------------------+
|        2125|   -8.363112|   -7.740197|   -8.181227|   -7.982883|    0.313279|    1.425352|    0.753427|   -0.310023|
|        2150|   -8.420207|   -7.770277|   -8.247497|   -8.038230|    0.313042|    1.426078|    0.753525|   -0.344869|
|        2175|   -8.420614|   -7.778007|   -8.245534|   -8.044191|    0.312845|    1.426780|    0.753646|   -0.332324|
|        2200|   -8.363220|   -7.753515|   -8.188388|   -7.979785|    0.312669|    1.427596|    0.753849|   -0.307752|
+-----------------------------------------------------------------------+
|        File Writing Summary       |              Filename             |
+-----------------------------------------------------------------------+
|SU2 binary restart                 |restart.dat                        |
|Paraview                           |vol_solution.vtu                   |
|Paraview surface                   |surface.vtu                        |
+-----------------------------------------------------------------------+
+--------------------------------------------------------------------------------------------------------------------+
|  Inner_Iter|    rms[Rho]|   rms[RhoU]|   rms[RhoV]|   rms[RhoE]|          CD|          CL|         CMz|   LinSolRes|
+--------------------------------------------------------------------------------------------------------------------+
|        2225|   -8.357275|   -7.753551|   -8.163840|   -7.973198|    0.312455|    1.428277|    0.753961|   -0.305881|
|        2250|   -8.404652|   -7.781462|   -8.228631|   -8.025607|    0.312263|    1.428946|    0.754090|   -0.332033|
|        2275|   -8.405829|   -7.783850|   -8.250765|   -8.023061|    0.312084|    1.429659|    0.754258|   -0.292717|
|        2300|   -8.409265|   -7.804344|   -8.260905|   -8.024547|    0.311848|    1.430178|    0.754289|   -0.318425|
+-----------------------------------------------------------------------+
|        File Writing Summary       |              Filename             |
+-----------------------------------------------------------------------+
|SU2 binary restart                 |restart.dat                        |
|Paraview                           |vol_solution.vtu                   |
|Paraview surface                   |surface.vtu                        |
+-----------------------------------------------------------------------+
+--------------------------------------------------------------------------------------------------------------------+
|  Inner_Iter|    rms[Rho]|   rms[RhoU]|   rms[RhoV]|   rms[RhoE]|          CD|          CL|         CMz|   LinSolRes|
+--------------------------------------------------------------------------------------------------------------------+
|        2325|   -8.455631|   -7.825531|   -8.284276|   -8.072466|    0.311605|    1.430604|    0.754283|   -0.323896|
|        2350|   -8.470610|   -7.832819|   -8.314010|   -8.082924|    0.311400|    1.431107|    0.754349|   -0.347719|
|        2375|   -8.454779|   -7.837649|   -8.302770|   -8.069378|    0.311160|    1.431536|    0.754352|   -0.314359|
|        2400|   -8.476654|   -7.845653|   -8.289407|   -8.093612|    0.310928|    1.431952|    0.754359|   -0.359392|
+-----------------------------------------------------------------------+
|        File Writing Summary       |              Filename             |
+-----------------------------------------------------------------------+
|SU2 binary restart                 |restart.dat                        |
|Paraview                           |vol_solution.vtu                   |
|Paraview surface                   |surface.vtu                        |
+-----------------------------------------------------------------------+
+--------------------------------------------------------------------------------------------------------------------+
|  Inner_Iter|    rms[Rho]|   rms[RhoU]|   rms[RhoV]|   rms[RhoE]|          CD|          CL|         CMz|   LinSolRes|
+--------------------------------------------------------------------------------------------------------------------+
|        2425|   -8.466023|   -7.838074|   -8.290174|   -8.080633|    0.310733|    1.432482|    0.754445|   -0.312957|
|        2450|   -8.433642|   -7.824671|   -8.267552|   -8.046776|    0.310508|    1.432967|    0.754479|   -0.320488|
|        2475|   -8.437688|   -7.832017|   -8.264098|   -8.053107|    0.310261|    1.433385|    0.754462|   -0.316339|
|        2500|   -8.469181|   -7.834376|   -8.291805|   -8.085574|    0.310041|    1.433902|    0.754524|   -0.359629|
+-----------------------------------------------------------------------+
|        File Writing Summary       |              Filename             |
+-----------------------------------------------------------------------+
|SU2 binary restart                 |restart.dat                        |
|Paraview                           |vol_solution.vtu                   |
|Paraview surface                   |surface.vtu                        |
+-----------------------------------------------------------------------+
+--------------------------------------------------------------------------------------------------------------------+
|  Inner_Iter|    rms[Rho]|   rms[RhoU]|   rms[RhoV]|   rms[RhoE]|          CD|          CL|         CMz|   LinSolRes|
+--------------------------------------------------------------------------------------------------------------------+
|        2525|   -8.440107|   -7.810039|   -8.260235|   -8.054102|    0.309808|    1.434369|    0.754536|   -0.296815|
|        2550|   -8.420689|   -7.812597|   -8.226522|   -8.032708|    0.309493|    1.434679|    0.754381|   -0.331261|
|        2575|   -8.486127|   -7.808209|   -8.204821|   -8.104226|    0.309203|    1.435106|    0.754334|   -0.366169|
|        2600|   -8.393378|   -7.743658|   -8.128302|   -8.005659|    0.309047|    1.435876|    0.754531|   -0.335694|
+-----------------------------------------------------------------------+
|        File Writing Summary       |              Filename             |
+-----------------------------------------------------------------------+
|SU2 binary restart                 |restart.dat                        |
|Paraview                           |vol_solution.vtu                   |
|Paraview surface                   |surface.vtu                        |
+-----------------------------------------------------------------------+
+--------------------------------------------------------------------------------------------------------------------+
|  Inner_Iter|    rms[Rho]|   rms[RhoU]|   rms[RhoV]|   rms[RhoE]|          CD|          CL|         CMz|   LinSolRes|
+--------------------------------------------------------------------------------------------------------------------+
|        2625|   -8.298205|   -7.691338|   -8.025636|   -7.907694|    0.308811|    1.436608|    0.754613|   -0.308577|
|        2650|   -8.362709|   -7.734950|   -8.060637|   -7.984509|    0.308572|    1.437284|    0.754692|   -0.372187|
|        2675|   -8.344160|   -7.718626|   -8.142922|   -7.957802|    0.308405|    1.438231|    0.754946|   -0.312472|
|        2700|   -8.327987|   -7.726060|   -8.147371|   -7.942868|    0.308136|    1.438980|    0.755008|   -0.304531|
+-----------------------------------------------------------------------+
|        File Writing Summary       |              Filename             |
+-----------------------------------------------------------------------+
|SU2 binary restart                 |restart.dat                        |
|Paraview                           |vol_solution.vtu                   |
|Paraview surface                   |surface.vtu                        |
+-----------------------------------------------------------------------+
+--------------------------------------------------------------------------------------------------------------------+
|  Inner_Iter|    rms[Rho]|   rms[RhoU]|   rms[RhoV]|   rms[RhoE]|          CD|          CL|         CMz|   LinSolRes|
+--------------------------------------------------------------------------------------------------------------------+
|        2725|   -8.399462|   -7.751282|   -8.179489|   -8.021824|    0.307865|    1.439631|    0.755046|   -0.342617|
|        2750|   -8.383282|   -7.744739|   -8.198680|   -7.995898|    0.307661|    1.440489|    0.755247|   -0.327637|
|        2775|   -8.357083|   -7.733658|   -8.172777|   -7.971815|    0.307425|    1.441207|    0.755344|   -0.297602|
|        2800|   -8.356937|   -7.745522|   -8.161259|   -7.971296|    0.307163|    1.441858|    0.755398|   -0.346580|
+-----------------------------------------------------------------------+
|        File Writing Summary       |              Filename             |
+-----------------------------------------------------------------------+
|SU2 binary restart                 |restart.dat                        |
|Paraview                           |vol_solution.vtu                   |
|Paraview surface                   |surface.vtu                        |
+-----------------------------------------------------------------------+
+--------------------------------------------------------------------------------------------------------------------+
|  Inner_Iter|    rms[Rho]|   rms[RhoU]|   rms[RhoV]|   rms[RhoE]|          CD|          CL|         CMz|   LinSolRes|
+--------------------------------------------------------------------------------------------------------------------+
|        2825|   -8.411047|   -7.763986|   -8.227735|   -8.026694|    0.306916|    1.442531|    0.755484|   -0.327058|
|        2850|   -8.399239|   -7.767194|   -8.244037|   -8.012458|    0.306664|    1.443177|    0.755544|   -0.330689|
|        2875|   -8.397617|   -7.766645|   -8.228839|   -8.012435|    0.306415|    1.443836|    0.755627|   -0.310352|
|        2900|   -8.390525|   -7.762611|   -8.227133|   -8.004975|    0.306169|    1.444501|    0.755716|   -0.344474|
+-----------------------------------------------------------------------+
|        File Writing Summary       |              Filename             |
+-----------------------------------------------------------------------+
|SU2 binary restart                 |restart.dat                        |
|Paraview                           |vol_solution.vtu                   |
|Paraview surface                   |surface.vtu                        |
+-----------------------------------------------------------------------+
+--------------------------------------------------------------------------------------------------------------------+
|  Inner_Iter|    rms[Rho]|   rms[RhoU]|   rms[RhoV]|   rms[RhoE]|          CD|          CL|         CMz|   LinSolRes|
+--------------------------------------------------------------------------------------------------------------------+
|        2925|   -8.395317|   -7.761540|   -8.222898|   -8.009672|    0.305910|    1.445089|    0.755751|   -0.307812|
|        2950|   -8.409322|   -7.773440|   -8.245873|   -8.022441|    0.305620|    1.445637|    0.755737|   -0.332665|
|        2975|   -8.455956|   -7.782038|   -8.262353|   -8.071403|    0.305332|    1.446170|    0.755727|   -0.328228|
|        3000|   -8.405872|   -7.773042|   -8.238624|   -8.018223|    0.305071|    1.446787|    0.755763|   -0.350970|
+-----------------------------------------------------------------------+
|        File Writing Summary       |              Filename             |
+-----------------------------------------------------------------------+
|SU2 binary restart                 |restart.dat                        |
|Paraview                           |vol_solution.vtu                   |
|Paraview surface                   |surface.vtu                        |
+-----------------------------------------------------------------------+
+--------------------------------------------------------------------------------------------------------------------+
|  Inner_Iter|    rms[Rho]|   rms[RhoU]|   rms[RhoV]|   rms[RhoE]|          CD|          CL|         CMz|   LinSolRes|
+--------------------------------------------------------------------------------------------------------------------+
|        3025|   -8.402636|   -7.753707|   -8.205386|   -8.018478|    0.304808|    1.447461|    0.755837|   -0.332467|
|        3050|   -8.373594|   -7.732028|   -8.168156|   -7.989903|    0.304577|    1.448227|    0.755964|   -0.339340|
|        3075|   -8.338418|   -7.721871|   -8.147092|   -7.953440|    0.304328|    1.448981|    0.756062|   -0.313457|
|        3100|   -8.361722|   -7.732664|   -8.180861|   -7.976962|    0.304043|    1.449673|    0.756098|   -0.343042|
+-----------------------------------------------------------------------+
|        File Writing Summary       |              Filename             |
+-----------------------------------------------------------------------+
|SU2 binary restart                 |restart.dat                        |
|Paraview                           |vol_solution.vtu                   |
|Paraview surface                   |surface.vtu                        |
+-----------------------------------------------------------------------+
+--------------------------------------------------------------------------------------------------------------------+
|  Inner_Iter|    rms[Rho]|   rms[RhoU]|   rms[RhoV]|   rms[RhoE]|          CD|          CL|         CMz|   LinSolRes|
+--------------------------------------------------------------------------------------------------------------------+
|        3125|   -8.387707|   -7.741023|   -8.218664|   -8.002065|    0.303741|    1.450327|    0.756101|   -0.329134|
|        3150|   -8.397059|   -7.743368|   -8.225961|   -8.011786|    0.303440|    1.451023|    0.756127|   -0.346997|
|        3175|   -8.394079|   -7.725531|   -8.192944|   -8.013811|    0.303187|    1.451858|    0.756264|   -0.344532|
|        3200|   -8.303134|   -7.677505|   -8.096866|   -7.918423|    0.302969|    1.452800|    0.756476|   -0.331023|
+-----------------------------------------------------------------------+
|        File Writing Summary       |              Filename             |
+-----------------------------------------------------------------------+
|SU2 binary restart                 |restart.dat                        |
|Paraview                           |vol_solution.vtu                   |
|Paraview surface                   |surface.vtu                        |
+-----------------------------------------------------------------------+
+--------------------------------------------------------------------------------------------------------------------+
|  Inner_Iter|    rms[Rho]|   rms[RhoU]|   rms[RhoV]|   rms[RhoE]|          CD|          CL|         CMz|   LinSolRes|
+--------------------------------------------------------------------------------------------------------------------+
|        3225|   -8.298668|   -7.673302|   -8.051092|   -7.914058|    0.302706|    1.453671|    0.756594|   -0.318637|
|        3250|   -8.347011|   -7.701002|   -8.130886|   -7.966532|    0.302426|    1.454475|    0.756692|   -0.363989|
|        3275|   -8.350614|   -7.700763|   -8.173289|   -7.963881|    0.302175|    1.455372|    0.756850|   -0.304903|
|        3300|   -8.348332|   -7.715062|   -8.186011|   -7.963529|    0.301852|    1.456088|    0.756873|   -0.328818|
+-----------------------------------------------------------------------+
|        File Writing Summary       |              Filename             |
+-----------------------------------------------------------------------+
|SU2 binary restart                 |restart.dat                        |
|Paraview                           |vol_solution.vtu                   |
|Paraview surface                   |surface.vtu                        |
+-----------------------------------------------------------------------+
+--------------------------------------------------------------------------------------------------------------------+
|  Inner_Iter|    rms[Rho]|   rms[RhoU]|   rms[RhoV]|   rms[RhoE]|          CD|          CL|         CMz|   LinSolRes|
+--------------------------------------------------------------------------------------------------------------------+
|        3325|   -8.375416|   -7.719644|   -8.191575|   -7.992296|    0.301564|    1.456837|    0.756956|   -0.335756|
|        3350|   -8.349650|   -7.706552|   -8.179565|   -7.962099|    0.301318|    1.457678|    0.757119|   -0.335286|
|        3375|   -8.319116|   -7.701036|   -8.131194|   -7.929767|    0.301007|    1.458325|    0.757110|   -0.297910|
|        3400|   -8.366612|   -7.725589|   -8.165675|   -7.978979|    0.300640|    1.458838|    0.757012|   -0.340038|
+-----------------------------------------------------------------------+
|        File Writing Summary       |              Filename             |
+-----------------------------------------------------------------------+
|SU2 binary restart                 |restart.dat                        |
|Paraview                           |vol_solution.vtu                   |
|Paraview surface                   |surface.vtu                        |
+-----------------------------------------------------------------------+
+--------------------------------------------------------------------------------------------------------------------+
|  Inner_Iter|    rms[Rho]|   rms[RhoU]|   rms[RhoV]|   rms[RhoE]|          CD|          CL|         CMz|   LinSolRes|
+--------------------------------------------------------------------------------------------------------------------+
|        3425|   -8.413696|   -7.727934|   -8.182333|   -8.025833|    0.300332|    1.459538|    0.757055|   -0.362426|
|        3450|   -8.354846|   -7.695639|   -8.140132|   -7.969040|    0.300095|    1.460402|    0.757221|   -0.352694|
|        3475|   -8.290156|   -7.655231|   -8.040899|   -7.902941|    0.299828|    1.461282|    0.757360|   -0.317982|
|        3500|   -8.293929|   -7.672798|   -8.053862|   -7.909130|    0.299509|    1.462047|    0.757402|   -0.339470|
+-----------------------------------------------------------------------+
|        File Writing Summary       |              Filename             |
+-----------------------------------------------------------------------+
|SU2 binary restart                 |restart.dat                        |
|Paraview                           |vol_solution.vtu                   |
|Paraview surface                   |surface.vtu                        |
+-----------------------------------------------------------------------+
+--------------------------------------------------------------------------------------------------------------------+
|  Inner_Iter|    rms[Rho]|   rms[RhoU]|   rms[RhoV]|   rms[RhoE]|          CD|          CL|         CMz|   LinSolRes|
+--------------------------------------------------------------------------------------------------------------------+
|        3525|   -8.353980|   -7.690871|   -8.153134|   -7.969567|    0.299214|    1.462842|    0.757477|   -0.322321|
|        3550|   -8.343602|   -7.694687|   -8.181157|   -7.955887|    0.298901|    1.463643|    0.757531|   -0.335745|
|        3575|   -8.354185|   -7.700063|   -8.174833|   -7.969208|    0.298547|    1.464338|    0.757511|   -0.327076|
|        3600|   -8.358849|   -7.695894|   -8.168561|   -7.974035|    0.298236|    1.465159|    0.757588|   -0.373446|
+-----------------------------------------------------------------------+
|        File Writing Summary       |              Filename             |
+-----------------------------------------------------------------------+
|SU2 binary restart                 |restart.dat                        |
|Paraview                           |vol_solution.vtu                   |
|Paraview surface                   |surface.vtu                        |
+-----------------------------------------------------------------------+
+--------------------------------------------------------------------------------------------------------------------+
|  Inner_Iter|    rms[Rho]|   rms[RhoU]|   rms[RhoV]|   rms[RhoE]|          CD|          CL|         CMz|   LinSolRes|
+--------------------------------------------------------------------------------------------------------------------+
|        3625|   -8.314703|   -7.660736|   -8.117412|   -7.928019|    0.297972|    1.466079|    0.757741|   -0.311722|
|        3650|   -8.279895|   -7.649170|   -8.063739|   -7.891782|    0.297642|    1.466938|    0.757787|   -0.330767|
|        3675|   -8.333328|   -7.670820|   -8.098166|   -7.952636|    0.297291|    1.467761|    0.757816|   -0.360304|
|        3700|   -8.307494|   -7.651021|   -8.110226|   -7.921642|    0.297040|    1.468846|    0.758053|   -0.351433|
+-----------------------------------------------------------------------+
|        File Writing Summary       |              Filename             |
+-----------------------------------------------------------------------+
|SU2 binary restart                 |restart.dat                        |
|Paraview                           |vol_solution.vtu                   |
|Paraview surface                   |surface.vtu                        |
+-----------------------------------------------------------------------+
+--------------------------------------------------------------------------------------------------------------------+
|  Inner_Iter|    rms[Rho]|   rms[RhoU]|   rms[RhoV]|   rms[RhoE]|          CD|          CL|         CMz|   LinSolRes|
+--------------------------------------------------------------------------------------------------------------------+
|        3725|   -8.253506|   -7.627530|   -8.052478|   -7.867662|    0.296752|    1.469928|    0.758246|   -0.311616|
|        3750|   -8.267955|   -7.635734|   -8.038253|   -7.885393|    0.296430|    1.470873|    0.758356|   -0.340530|
|        3775|   -8.291887|   -7.643326|   -8.104165|   -7.907571|    0.296144|    1.471874|    0.758524|   -0.327351|
|        3800|   -8.294383|   -7.654688|   -8.136476|   -7.906148|    0.295785|    1.472731|    0.758568|   -0.319792|
+-----------------------------------------------------------------------+
|        File Writing Summary       |              Filename             |
+-----------------------------------------------------------------------+
|SU2 binary restart                 |restart.dat                        |
|Paraview                           |vol_solution.vtu                   |
|Paraview surface                   |surface.vtu                        |
+-----------------------------------------------------------------------+
+--------------------------------------------------------------------------------------------------------------------+
|  Inner_Iter|    rms[Rho]|   rms[RhoU]|   rms[RhoV]|   rms[RhoE]|          CD|          CL|         CMz|   LinSolRes|
+--------------------------------------------------------------------------------------------------------------------+
|        3825|   -8.315045|   -7.671594|   -8.148205|   -7.927176|    0.295385|    1.473423|    0.758495|   -0.342499|
|        3850|   -8.339584|   -7.674074|   -8.152005|   -7.951089|    0.295035|    1.474260|    0.758553|   -0.353912|
|        3875|   -8.320282|   -7.649586|   -8.112566|   -7.936115|    0.294745|    1.475263|    0.758732|   -0.349013|
|        3900|   -8.250087|   -7.603897|   -8.007197|   -7.864583|    0.294487|    1.476360|    0.758974|   -0.322746|
+-----------------------------------------------------------------------+
|        File Writing Summary       |              Filename             |
+-----------------------------------------------------------------------+
|SU2 binary restart                 |restart.dat                        |
|Paraview                           |vol_solution.vtu                   |
|Paraview surface                   |surface.vtu                        |
+-----------------------------------------------------------------------+
+--------------------------------------------------------------------------------------------------------------------+
|  Inner_Iter|    rms[Rho]|   rms[RhoU]|   rms[RhoV]|   rms[RhoE]|          CD|          CL|         CMz|   LinSolRes|
+--------------------------------------------------------------------------------------------------------------------+
|        3925|   -8.237650|   -7.607329|   -7.984449|   -7.852749|    0.294164|    1.477341|    0.759091|   -0.330464|
|        3950|   -8.284970|   -7.637461|   -8.079529|   -7.899879|    0.293772|    1.478149|    0.759077|   -0.330095|
|        3975|   -8.314348|   -7.652883|   -8.131659|   -7.924059|    0.293393|    1.478973|    0.759083|   -0.351470|
|        4000|   -8.324889|   -7.654394|   -8.137313|   -7.937665|    0.293024|    1.479833|    0.759126|   -0.343721|
+-----------------------------------------------------------------------+
|        File Writing Summary       |              Filename             |
+-----------------------------------------------------------------------+
|SU2 binary restart                 |restart.dat                        |
|Paraview                           |vol_solution.vtu                   |
|Paraview surface                   |surface.vtu                        |
+-----------------------------------------------------------------------+
+--------------------------------------------------------------------------------------------------------------------+
|  Inner_Iter|    rms[Rho]|   rms[RhoU]|   rms[RhoV]|   rms[RhoE]|          CD|          CL|         CMz|   LinSolRes|
+--------------------------------------------------------------------------------------------------------------------+
|        4025|   -8.294602|   -7.637493|   -8.094301|   -7.908597|    0.292685|    1.480770|    0.759227|   -0.340568|
|        4050|   -8.273410|   -7.619623|   -8.047392|   -7.887581|    0.292356|    1.481749|    0.759345|   -0.337826|
|        4075|   -8.266300|   -7.613070|   -8.054806|   -7.880467|    0.292027|    1.482756|    0.759468|   -0.334869|
|        4100|   -8.269612|   -7.622769|   -8.074087|   -7.883402|    0.291650|    1.483705|    0.759502|   -0.337289|
+-----------------------------------------------------------------------+
|        File Writing Summary       |              Filename             |
+-----------------------------------------------------------------------+
|SU2 binary restart                 |restart.dat                        |
|Paraview                           |vol_solution.vtu                   |
|Paraview surface                   |surface.vtu                        |
+-----------------------------------------------------------------------+
+--------------------------------------------------------------------------------------------------------------------+
|  Inner_Iter|    rms[Rho]|   rms[RhoU]|   rms[RhoV]|   rms[RhoE]|          CD|          CL|         CMz|   LinSolRes|
+--------------------------------------------------------------------------------------------------------------------+
|        4125|   -8.274842|   -7.630409|   -8.101503|   -7.887767|    0.291232|    1.484584|    0.759482|   -0.342982|
|        4150|   -8.298024|   -7.624247|   -8.108259|   -7.913632|    0.290872|    1.485678|    0.759624|   -0.362077|
|        4175|   -8.247511|   -7.583403|   -8.031555|   -7.865117|    0.290597|    1.486954|    0.759910|   -0.336747|
|        4200|   -8.186538|   -7.550842|   -7.936131|   -7.800746|    0.290280|    1.488189|    0.760123|   -0.326165|
+-----------------------------------------------------------------------+
|        File Writing Summary       |              Filename             |
+-----------------------------------------------------------------------+
|SU2 binary restart                 |restart.dat                        |
|Paraview                           |vol_solution.vtu                   |
|Paraview surface                   |surface.vtu                        |
+-----------------------------------------------------------------------+
+--------------------------------------------------------------------------------------------------------------------+
|  Inner_Iter|    rms[Rho]|   rms[RhoU]|   rms[RhoV]|   rms[RhoE]|          CD|          CL|         CMz|   LinSolRes|
+--------------------------------------------------------------------------------------------------------------------+
|        4225|   -8.221486|   -7.580712|   -7.972747|   -7.838919|    0.289868|    1.489236|    0.760173|   -0.345749|
|        4250|   -8.271253|   -7.595087|   -8.064758|   -7.885257|    0.289493|    1.490339|    0.760301|   -0.355138|
|        4275|   -8.254362|   -7.595617|   -8.074516|   -7.867545|    0.289149|    1.491542|    0.760499|   -0.338420|
|        4300|   -8.239109|   -7.589796|   -8.037012|   -7.854469|    0.288772|    1.492650|    0.760634|   -0.336692|
+-----------------------------------------------------------------------+
|        File Writing Summary       |              Filename             |
+-----------------------------------------------------------------------+
|SU2 binary restart                 |restart.dat                        |
|Paraview                           |vol_solution.vtu                   |
|Paraview surface                   |surface.vtu                        |
+-----------------------------------------------------------------------+
+--------------------------------------------------------------------------------------------------------------------+
|  Inner_Iter|    rms[Rho]|   rms[RhoU]|   rms[RhoV]|   rms[RhoE]|          CD|          CL|         CMz|   LinSolRes|
+--------------------------------------------------------------------------------------------------------------------+
|        4325|   -8.235433|   -7.587903|   -8.035812|   -7.849924|    0.288398|    1.493699|    0.760748|   -0.331369|
|        4350|   -8.244279|   -7.596544|   -8.073973|   -7.855836|    0.287985|    1.494681|    0.760787|   -0.325463|
|        4375|   -8.289016|   -7.612546|   -8.103035|   -7.902923|    0.287563|    1.495586|    0.760794|   -0.350348|
|        4400|   -8.271927|   -7.604079|   -8.088500|   -7.883236|    0.287173|    1.496594|    0.760879|   -0.350552|
+-----------------------------------------------------------------------+
|        File Writing Summary       |              Filename             |
+-----------------------------------------------------------------------+
|SU2 binary restart                 |restart.dat                        |
|Paraview                           |vol_solution.vtu                   |
|Paraview surface                   |surface.vtu                        |
+-----------------------------------------------------------------------+
+--------------------------------------------------------------------------------------------------------------------+
|  Inner_Iter|    rms[Rho]|   rms[RhoU]|   rms[RhoV]|   rms[RhoE]|          CD|          CL|         CMz|   LinSolRes|
+--------------------------------------------------------------------------------------------------------------------+
|        4425|   -8.251331|   -7.596252|   -8.057366|   -7.862683|    0.286763|    1.497578|    0.760919|   -0.331235|
|        4450|   -8.262032|   -7.594392|   -8.056445|   -7.876418|    0.286356|    1.498585|    0.760978|   -0.355894|
|        4475|   -8.236790|   -7.571081|   -8.040781|   -7.850514|    0.286016|    1.499792|    0.761183|   -0.333715|
|        4500|   -8.208800|   -7.561690|   -7.995713|   -7.821648|    0.285609|    1.500911|    0.761258|   -0.328784|
+-----------------------------------------------------------------------+
|        File Writing Summary       |              Filename             |
+-----------------------------------------------------------------------+
|SU2 binary restart                 |restart.dat                        |
|Paraview                           |vol_solution.vtu                   |
|Paraview surface                   |surface.vtu                        |
+-----------------------------------------------------------------------+
+--------------------------------------------------------------------------------------------------------------------+
|  Inner_Iter|    rms[Rho]|   rms[RhoU]|   rms[RhoV]|   rms[RhoE]|          CD|          CL|         CMz|   LinSolRes|
+--------------------------------------------------------------------------------------------------------------------+
|        4525|   -8.236580|   -7.578548|   -8.021447|   -7.851900|    0.285141|    1.501864|    0.761218|   -0.350807|
|        4550|   -8.250735|   -7.575320|   -8.061465|   -7.863253|    0.284743|    1.503065|    0.761361|   -0.359009|
|        4575|   -8.224968|   -7.557809|   -8.028829|   -7.840466|    0.284363|    1.504352|    0.761551|   -0.341848|
|        4600|   -8.184062|   -7.536019|   -7.961486|   -7.799496|    0.283981|    1.505637|    0.761727|   -0.344286|
+-----------------------------------------------------------------------+
|        File Writing Summary       |              Filename             |
+-----------------------------------------------------------------------+
|SU2 binary restart                 |restart.dat                        |
|Paraview                           |vol_solution.vtu                   |
|Paraview surface                   |surface.vtu                        |
+-----------------------------------------------------------------------+
+--------------------------------------------------------------------------------------------------------------------+
|  Inner_Iter|    rms[Rho]|   rms[RhoU]|   rms[RhoV]|   rms[RhoE]|          CD|          CL|         CMz|   LinSolRes|
+--------------------------------------------------------------------------------------------------------------------+
|        4625|   -8.189008|   -7.541069|   -7.969191|   -7.805272|    0.283552|    1.506892|    0.761847|   -0.335365|
|        4650|   -8.222761|   -7.551279|   -8.026164|   -7.839847|    0.283125|    1.508151|    0.761977|   -0.346948|
|        4675|   -8.208689|   -7.541397|   -8.025440|   -7.824128|    0.282744|    1.509526|    0.762207|   -0.344213|
|        4700|   -8.177709|   -7.532723|   -7.982697|   -7.792035|    0.282318|    1.510831|    0.762357|   -0.327886|
+-----------------------------------------------------------------------+
|        File Writing Summary       |              Filename             |
+-----------------------------------------------------------------------+
|SU2 binary restart                 |restart.dat                        |
|Paraview                           |vol_solution.vtu                   |
|Paraview surface                   |surface.vtu                        |
+-----------------------------------------------------------------------+
+--------------------------------------------------------------------------------------------------------------------+
|  Inner_Iter|    rms[Rho]|   rms[RhoU]|   rms[RhoV]|   rms[RhoE]|          CD|          CL|         CMz|   LinSolRes|
+--------------------------------------------------------------------------------------------------------------------+
|        4725|   -8.188113|   -7.542200|   -7.991860|   -7.802305|    0.281829|    1.511952|    0.762375|   -0.343170|
|        4750|   -8.217129|   -7.546460|   -8.038769|   -7.830575|    0.281399|    1.513215|    0.762519|   -0.345464|
|        4775|   -8.203061|   -7.536426|   -8.021885|   -7.817155|    0.280991|    1.514542|    0.762702|   -0.337785|
|        4800|   -8.176702|   -7.526745|   -7.970430|   -7.790808|    0.280548|    1.515793|    0.762816|   -0.332118|
+-----------------------------------------------------------------------+
|        File Writing Summary       |              Filename             |
+-----------------------------------------------------------------------+
|SU2 binary restart                 |restart.dat                        |
|Paraview                           |vol_solution.vtu                   |
|Paraview surface                   |surface.vtu                        |
+-----------------------------------------------------------------------+
+--------------------------------------------------------------------------------------------------------------------+
|  Inner_Iter|    rms[Rho]|   rms[RhoU]|   rms[RhoV]|   rms[RhoE]|          CD|          CL|         CMz|   LinSolRes|
+--------------------------------------------------------------------------------------------------------------------+
|        4825|   -8.191707|   -7.533589|   -7.986490|   -7.806694|    0.280087|    1.517037|    0.762919|   -0.350402|
|        4850|   -8.197297|   -7.529758|   -8.017984|   -7.810706|    0.279660|    1.518340|    0.763073|   -0.339063|
|        4875|   -8.171872|   -7.525981|   -8.002948|   -7.784038|    0.279200|    1.519605|    0.763170|   -0.332946|
|        4900|   -8.192152|   -7.532266|   -8.004161|   -7.806495|    0.278692|    1.520778|    0.763188|   -0.345505|
+-----------------------------------------------------------------------+
|        File Writing Summary       |              Filename             |
+-----------------------------------------------------------------------+
|SU2 binary restart                 |restart.dat                        |
|Paraview                           |vol_solution.vtu                   |
|Paraview surface                   |surface.vtu                        |
+-----------------------------------------------------------------------+
+--------------------------------------------------------------------------------------------------------------------+
|  Inner_Iter|    rms[Rho]|   rms[RhoU]|   rms[RhoV]|   rms[RhoE]|          CD|          CL|         CMz|   LinSolRes|
+--------------------------------------------------------------------------------------------------------------------+
|        4925|   -8.201764|   -7.528865|   -8.019903|   -7.815156|    0.278230|    1.522060|    0.763298|   -0.345317|
|        4950|   -8.183762|   -7.517966|   -8.000222|   -7.797430|    0.277775|    1.523410|    0.763433|   -0.341158|
[...]
|  Inner_Iter|    rms[Rho]|   rms[RhoU]|   rms[RhoV]|   rms[RhoE]|          CD|          CL|         CMz|   LinSolRes|
+--------------------------------------------------------------------------------------------------------------------+
|       48625|   -8.040511|   -7.392703|   -7.884362|   -7.653996|    0.260040|    1.577309|    0.769199|   -0.326649|
|       48650|   -8.029714|   -7.390043|   -7.862023|   -7.643777|    0.259408|    1.579192|    0.769377|   -0.324345|
|       48675|   -8.047719|   -7.394531|   -7.870514|   -7.663232|    0.258765|    1.581023|    0.769531|   -0.338310|
|       48700|   -8.047064|   -7.392564|   -7.890195|   -7.660518|    0.258150|    1.582976|    0.769777|   -0.335333|
+-----------------------------------------------------------------------+
|        File Writing Summary       |              Filename             |
+-----------------------------------------------------------------------+
|SU2 binary restart                 |restart.dat                        |
|Paraview                           |vol_solution.vtu                   |
|Paraview surface                   |surface.vtu                        |
+-----------------------------------------------------------------------+
+--------------------------------------------------------------------------------------------------------------------+
|  Inner_Iter|    rms[Rho]|   rms[RhoU]|   rms[RhoV]|   rms[RhoE]|          CD|          CL|         CMz|   LinSolRes|
+--------------------------------------------------------------------------------------------------------------------+
|       48725|   -8.036784|   -7.387371|   -7.876806|   -7.650566|    0.257524|    1.584879|    0.769983|   -0.332966|
|       48750|   -8.022953|   -7.381097|   -7.857971|   -7.636498|    0.256914|    1.586800|    0.770203|   -0.329665|
|       48775|   -8.030297|   -7.383943|   -7.861266|   -7.643132|    0.256239|    1.588637|    0.770324|   -0.324425|
|       48800|   -8.049537|   -7.390401|   -7.888527|   -7.661727|    0.255532|    1.590341|    0.770349|   -0.335907|
+-----------------------------------------------------------------------+
|        File Writing Summary       |              Filename             |
+-----------------------------------------------------------------------+
|SU2 binary restart                 |restart.dat                        |
|Paraview                           |vol_solution.vtu                   |
|Paraview surface                   |surface.vtu                        |
+-----------------------------------------------------------------------+
+--------------------------------------------------------------------------------------------------------------------+
|  Inner_Iter|    rms[Rho]|   rms[RhoU]|   rms[RhoV]|   rms[RhoE]|          CD|          CL|         CMz|   LinSolRes|
+--------------------------------------------------------------------------------------------------------------------+
|       48825|   -8.045321|   -7.389386|   -7.900316|   -7.656738|    0.254842|    1.592185|    0.770459|   -0.341791|
|       48850|   -8.040796|   -7.379768|   -7.873830|   -7.655611|    0.254187|    1.594191|    0.770678|   -0.351335|
|       48875|   -8.005600|   -7.352663|   -7.814329|   -7.622041|    0.253643|    1.596453|    0.771095|   -0.342910|
|       48900|   -7.961242|   -7.329226|   -7.755344|   -7.576480|    0.253065|    1.598810|    0.771505|   -0.326665|
+-----------------------------------------------------------------------+
|        File Writing Summary       |              Filename             |
+-----------------------------------------------------------------------+
|SU2 binary restart                 |restart.dat                        |
|Paraview                           |vol_solution.vtu                   |
|Paraview surface                   |surface.vtu                        |
+-----------------------------------------------------------------------+
+--------------------------------------------------------------------------------------------------------------------+
|  Inner_Iter|    rms[Rho]|   rms[RhoU]|   rms[RhoV]|   rms[RhoE]|          CD|          CL|         CMz|   LinSolRes|
+--------------------------------------------------------------------------------------------------------------------+
|       48925|   -7.975365|   -7.340203|   -7.770886|   -7.591591|    0.252356|    1.600902|    0.771671|   -0.331092|
|       48950|   -8.021230|   -7.354916|   -7.846241|   -7.637409|    0.251647|    1.603003|    0.771862|   -0.344109|
|       48975|   -8.017147|   -7.354957|   -7.864607|   -7.631168|    0.250978|    1.605228|    0.772153|   -0.339028|
|       49000|   -7.988725|   -7.348380|   -7.833344|   -7.602541|    0.250268|    1.607353|    0.772363|   -0.338533|
+-----------------------------------------------------------------------+
|        File Writing Summary       |              Filename             |
+-----------------------------------------------------------------------+
|SU2 binary restart                 |restart.dat                        |
|Paraview                           |vol_solution.vtu                   |
|Paraview surface                   |surface.vtu                        |
+-----------------------------------------------------------------------+
+--------------------------------------------------------------------------------------------------------------------+
|  Inner_Iter|    rms[Rho]|   rms[RhoU]|   rms[RhoV]|   rms[RhoE]|          CD|          CL|         CMz|   LinSolRes|
+--------------------------------------------------------------------------------------------------------------------+
|       49025|   -7.988811|   -7.344416|   -7.814799|   -7.603182|    0.249563|    1.609494|    0.772588|   -0.344353|
|       49050|   -7.996258|   -7.339265|   -7.824324|   -7.611554|    0.248899|    1.611748|    0.772899|   -0.332956|
|       49075|   -7.979614|   -7.331256|   -7.808079|   -7.593987|    0.248229|    1.613995|    0.773190|   -0.334245|
|       49100|   -7.980362|   -7.335451|   -7.803352|   -7.594862|    0.247473|    1.616108|    0.773333|   -0.342522|
+-----------------------------------------------------------------------+
|        File Writing Summary       |              Filename             |
+-----------------------------------------------------------------------+
|SU2 binary restart                 |restart.dat                        |
|Paraview                           |vol_solution.vtu                   |
|Paraview surface                   |surface.vtu                        |
+-----------------------------------------------------------------------+
+--------------------------------------------------------------------------------------------------------------------+
|  Inner_Iter|    rms[Rho]|   rms[RhoU]|   rms[RhoV]|   rms[RhoE]|          CD|          CL|         CMz|   LinSolRes|
+--------------------------------------------------------------------------------------------------------------------+
|       49125|   -7.993379|   -7.341375|   -7.841194|   -7.605949|    0.246711|    1.618139|    0.773440|   -0.346934|
|       49150|   -8.002393|   -7.341436|   -7.859487|   -7.614444|    0.245950|    1.620250|    0.773587|   -0.326465|
|       49175|   -8.003127|   -7.336894|   -7.840509|   -7.617858|    0.245190|    1.622401|    0.773753|   -0.346301|
|       49200|   -7.981503|   -7.320649|   -7.802479|   -7.597227|    0.244517|    1.624779|    0.774095|   -0.347831|
+-----------------------------------------------------------------------+
|        File Writing Summary       |              Filename             |
+-----------------------------------------------------------------------+
|SU2 binary restart                 |restart.dat                        |
|Paraview                           |vol_solution.vtu                   |
|Paraview surface                   |surface.vtu                        |
+-----------------------------------------------------------------------+
+--------------------------------------------------------------------------------------------------------------------+
|  Inner_Iter|    rms[Rho]|   rms[RhoU]|   rms[RhoV]|   rms[RhoE]|          CD|          CL|         CMz|   LinSolRes|
+--------------------------------------------------------------------------------------------------------------------+
|       49225|   -7.958117|   -7.305439|   -7.760260|   -7.573962|    0.243836|    1.627277|    0.774460|   -0.337286|
|       49250|   -7.951459|   -7.304991|   -7.758305|   -7.567751|    0.243099|    1.629680|    0.774725|   -0.345345|
|       49275|   -7.964585|   -7.306977|   -7.793863|   -7.581362|    0.242366|    1.632186|    0.775052|   -0.338192|
|       49300|   -7.964667|   -7.306005|   -7.798997|   -7.581125|    0.241613|    1.634697|    0.775358|   -0.343255|
+-----------------------------------------------------------------------+
|        File Writing Summary       |              Filename             |
+-----------------------------------------------------------------------+
|SU2 binary restart                 |restart.dat                        |
|Paraview                           |vol_solution.vtu                   |
|Paraview surface                   |surface.vtu                        |
+-----------------------------------------------------------------------+
+--------------------------------------------------------------------------------------------------------------------+
|  Inner_Iter|    rms[Rho]|   rms[RhoU]|   rms[RhoV]|   rms[RhoE]|          CD|          CL|         CMz|   LinSolRes|
+--------------------------------------------------------------------------------------------------------------------+
|       49325|   -7.963056|   -7.304863|   -7.799179|   -7.579047|    0.240828|    1.637097|    0.775586|   -0.330522|
|       49350|   -7.965214|   -7.303048|   -7.799027|   -7.580604|    0.240030|    1.639533|    0.775833|   -0.328445|
|       49375|   -7.958666|   -7.300854|   -7.801904|   -7.573839|    0.239233|    1.641985|    0.776083|   -0.345754|
|       49400|   -7.956411|   -7.292592|   -7.782707|   -7.572964|    0.238477|    1.644540|    0.776421|   -0.351075|
+-----------------------------------------------------------------------+
|        File Writing Summary       |              Filename             |
+-----------------------------------------------------------------------+
|SU2 binary restart                 |restart.dat                        |
|Paraview                           |vol_solution.vtu                   |
|Paraview surface                   |surface.vtu                        |
+-----------------------------------------------------------------------+
+--------------------------------------------------------------------------------------------------------------------+
|  Inner_Iter|    rms[Rho]|   rms[RhoU]|   rms[RhoV]|   rms[RhoE]|          CD|          CL|         CMz|   LinSolRes|
+--------------------------------------------------------------------------------------------------------------------+
|       49425|   -7.927238|   -7.281041|   -7.756376|   -7.542409|    0.237750|    1.647228|    0.776827|   -0.349137|
|       49450|   -7.927968|   -7.278602|   -7.742346|   -7.544376|    0.236946|    1.649741|    0.777077|   -0.340335|
|       49475|   -7.945767|   -7.284663|   -7.775520|   -7.560639|    0.236107|    1.652174|    0.777259|   -0.340974|
|       49500|   -7.948428|   -7.287102|   -7.807281|   -7.561772|    0.235268|    1.654657|    0.777473|   -0.346477|
+-----------------------------------------------------------------------+
|        File Writing Summary       |              Filename             |
+-----------------------------------------------------------------------+
|SU2 binary restart                 |restart.dat                        |
|Paraview                           |vol_solution.vtu                   |
|Paraview surface                   |surface.vtu                        |
+-----------------------------------------------------------------------+
+--------------------------------------------------------------------------------------------------------------------+
|  Inner_Iter|    rms[Rho]|   rms[RhoU]|   rms[RhoV]|   rms[RhoE]|          CD|          CL|         CMz|   LinSolRes|
+--------------------------------------------------------------------------------------------------------------------+
|       49525|   -7.952526|   -7.284877|   -7.793170|   -7.567484|    0.234433|    1.657184|    0.777716|   -0.355119|
|       49550|   -7.947520|   -7.274298|   -7.767019|   -7.564124|    0.233642|    1.659850|    0.778061|   -0.341438|
|       49575|   -7.924775|   -7.257068|   -7.730303|   -7.541220|    0.232908|    1.662681|    0.778509|   -0.337303|
|       49600|   -7.907523|   -7.254830|   -7.715796|   -7.522747|    0.232057|    1.665337|    0.778753|   -0.336367|
+-----------------------------------------------------------------------+
|        File Writing Summary       |              Filename             |
+-----------------------------------------------------------------------+
|SU2 binary restart                 |restart.dat                        |
|Paraview                           |vol_solution.vtu                   |
|Paraview surface                   |surface.vtu                        |
+-----------------------------------------------------------------------+
+--------------------------------------------------------------------------------------------------------------------+
|  Inner_Iter|    rms[Rho]|   rms[RhoU]|   rms[RhoV]|   rms[RhoE]|          CD|          CL|         CMz|   LinSolRes|
+--------------------------------------------------------------------------------------------------------------------+
|       49625|   -7.911115|   -7.263487|   -7.755545|   -7.525992|    0.231177|    1.667937|    0.778953|   -0.351659|
|       49650|   -7.933383|   -7.263837|   -7.781318|   -7.547297|    0.230331|    1.670712|    0.779277|   -0.351682|
|       49675|   -7.931864|   -7.256702|   -7.759844|   -7.548550|    0.229489|    1.673560|    0.779633|   -0.334728|
|       49700|   -7.904681|   -7.241840|   -7.717343|   -7.521939|    0.228700|    1.676511|    0.780076|   -0.354149|
+-----------------------------------------------------------------------+
|        File Writing Summary       |              Filename             |
+-----------------------------------------------------------------------+
|SU2 binary restart                 |restart.dat                        |
|Paraview                           |vol_solution.vtu                   |
|Paraview surface                   |surface.vtu                        |
+-----------------------------------------------------------------------+
+--------------------------------------------------------------------------------------------------------------------+
|  Inner_Iter|    rms[Rho]|   rms[RhoU]|   rms[RhoV]|   rms[RhoE]|          CD|          CL|         CMz|   LinSolRes|
+--------------------------------------------------------------------------------------------------------------------+
|       49725|   -7.887675|   -7.234526|   -7.702968|   -7.503667|    0.227878|    1.679472|    0.780479|   -0.342795|
|       49750|   -7.904269|   -7.239431|   -7.721425|   -7.521570|    0.226994|    1.682292|    0.780763|   -0.349741|
|       49775|   -7.925802|   -7.241809|   -7.746509|   -7.543831|    0.226137|    1.685215|    0.781120|   -0.339474|
|       49800|   -7.920151|   -7.241126|   -7.745863|   -7.536777|    0.225243|    1.688138|    0.781449|   -0.345147|
+-----------------------------------------------------------------------+
|        File Writing Summary       |              Filename             |
+-----------------------------------------------------------------------+
|SU2 binary restart                 |restart.dat                        |
|Paraview                           |vol_solution.vtu                   |
|Paraview surface                   |surface.vtu                        |
+-----------------------------------------------------------------------+
+--------------------------------------------------------------------------------------------------------------------+
|  Inner_Iter|    rms[Rho]|   rms[RhoU]|   rms[RhoV]|   rms[RhoE]|          CD|          CL|         CMz|   LinSolRes|
+--------------------------------------------------------------------------------------------------------------------+
|       49825|   -7.897923|   -7.235952|   -7.735496|   -7.513717|    0.224364|    1.691047|    0.781787|   -0.372889|
|       49850|   -7.911008|   -7.230595|   -7.726309|   -7.529280|    0.223521|    1.694112|    0.782231|   -0.332129|
|       49875|   -7.882342|   -7.222516|   -7.706262|   -7.498953|    0.222682|    1.697240|    0.782682|   -0.341178|
|       49900|   -7.903212|   -7.222969|   -7.699029|   -7.522214|    0.221788|    1.700226|    0.783006|   -0.348158|
+-----------------------------------------------------------------------+
|        File Writing Summary       |              Filename             |
+-----------------------------------------------------------------------+
|SU2 binary restart                 |restart.dat                        |
|Paraview                           |vol_solution.vtu                   |
|Paraview surface                   |surface.vtu                        |
+-----------------------------------------------------------------------+
+--------------------------------------------------------------------------------------------------------------------+
|  Inner_Iter|    rms[Rho]|   rms[RhoU]|   rms[RhoV]|   rms[RhoE]|          CD|          CL|         CMz|   LinSolRes|
+--------------------------------------------------------------------------------------------------------------------+
|       49925|   -7.874834|   -7.227364|   -7.718012|   -7.490090|    0.220841|    1.703183|    0.783285|   -0.366174|
|       49950|   -7.876676|   -7.226812|   -7.746276|   -7.491291|    0.219937|    1.706228|    0.783650|   -0.367097|
|       49975|   -7.886193|   -7.218430|   -7.720224|   -7.503491|    0.219091|    1.709486|    0.784158|   -0.333493|
|       49999|   -7.874790|   -7.206286|   -7.679910|   -7.492811|    0.218277|    1.712654|    0.784643|   -0.324714|

----------------------------- Solver Exit -------------------------------

Maximum number of iterations reached (ITER = 50000) before convergence.
+-----------------------------------------------------------------------+
|      Convergence Field     |     Value    |   Criterion  |  Converged |
+-----------------------------------------------------------------------+
|                  Cauchy[CL]|   6.90205e-05|       < 5e-07|          No|
+-----------------------------------------------------------------------+
-------------------------------------------------------------------------
+-----------------------------------------------------------------------+
|        File Writing Summary       |              Filename             |
+-----------------------------------------------------------------------+
|SU2 binary restart                 |restart.dat                        |
|Paraview                           |vol_solution.vtu                   |
|Paraview surface                   |surface.vtu                        |
+-----------------------------------------------------------------------+

------------------------- Solver Postprocessing -------------------------
Deleted CNumerics container.
Deleted CIntegration container.
Deleted CSolver container.
Deleted CIteration container.
Deleted CInterface container.
Deleted CGeometry container.
Deleted CFreeFormDefBox class.
Deleted CSurfaceMovement class.
Deleted CVolumetricMovement class.
Deleted CConfig container.
Deleted nInst container.
Deleted COutput class.
-------------------------------------------------------------------------

------------------------- Exit Success (SU2_CFD) ------------------------

