WARNING: The current SST-1994m model is inconsistent with literature. We recommend using the SST-2003m model.
In SU2 v8 the 2003m model will become default, and the inconsistency will be fixed.

-------------------------------------------------------------------------
|    ___ _   _ ___                                                      |
|   / __| | | |_  )   Release 7.4.0 "Blackbird"                         |
|   \__ \ |_| |/ /                                                      |
|   |___/\___//___|   Suite (Computational Fluid Dynamics Code)         |
|                                                                       |
-------------------------------------------------------------------------
| SU2 Project Website: https://su2code.github.io                        |
|                                                                       |
| The SU2 Project is maintained by the SU2 Foundation                   |
| (http://su2foundation.org)                                            |
-------------------------------------------------------------------------
| Copyright 2012-2022, SU2 Contributors                                 |
|                                                                       |
| SU2 is free software; you can redistribute it and/or                  |
| modify it under the terms of the GNU Lesser General Public            |
| License as published by the Free Software Foundation; either          |
| version 2.1 of the License, or (at your option) any later version.    |
|                                                                       |
| SU2 is distributed in the hope that it will be useful,                |
| but WITHOUT ANY WARRANTY; without even the implied warranty of        |
| MERCHANTABILITY or FITNESS FOR A PARTICULAR PURPOSE. See the GNU      |
| Lesser General Public License for more details.                       |
|                                                                       |
| You should have received a copy of the GNU Lesser General Public      |
| License along with SU2. If not, see <http://www.gnu.org/licenses/>.   |
-------------------------------------------------------------------------
WARNING: The current SST-1994m model is inconsistent with literature. We recommend using the SST-2003m model.
In SU2 v8 the 2003m model will become default, and the inconsistency will be fixed.

Parsing config file for zone 0
WARNING: The current SST-1994m model is inconsistent with literature. We recommend using the SST-2003m model.
In SU2 v8 the 2003m model will become default, and the inconsistency will be fixed.

----------------- Physical Case Definition ( Zone 0 ) -------------------
Compressible RANS equations.
Turbulence model: Menter's k-omega SST-1994m with no production modification.
Hybrid RANS/LES: No Hybrid RANS/LES
Mach number: 0.25.
Angle of attack (AoA): -3 deg, and angle of sideslip (AoS): 0 deg.
Reynolds number: 1.52602e+07. Reference length 2.62.
Reading and writing binary SU2 native restart files.
Read flow solution from: solution_flow.
Non-Dimensional simulation (V=Mach, Rho=1.0, T=1.0 at the farfield).
The reference area is 2.62 m^2.
The semi-span will be computed using the max y(3D) value.
The reference length is 2.62 m.
Reference origin for moment evaluation is (0, 0, 0).
Surface(s) where the force coefficients are evaluated: wall.

Surface(s) plotted in the output file: wall.
Input mesh file name: su2meshEx.su2

--------------- Space Numerical Integration ( Zone 0 ) ------------------
Roe (with entropy fix = 1e-05) solver for the flow inviscid terms.
Standard Roe without low-dissipation function.
Second order integration in space, with slope limiter.
Van Albada slope-limiting method implemented by edges.
Scalar upwind solver for the turbulence model.
First order integration in space.
Average of gradients with correction (viscous flow terms).
Average of gradients with correction (viscous turbulence terms).
Gradient for upwind reconstruction: Green-Gauss.
Gradient for viscous and source terms: Green-Gauss.

--------------- Time Numerical Integration  ( Zone 0 ) ------------------
Local time stepping (steady state simulation).
Euler implicit method for the flow equations.
FGMRES is used for solving the linear system.
Using a ILU(0) preconditioning.
Convergence criteria of the linear solver: 0.2.
Max number of linear iterations: 4.
CFL adaptation. Factor down: 0.1, factor up: 1.2,
                lower limit: 25, upper limit: 1000,
                acceptable linear residual: 0.001.
Courant-Friedrichs-Lewy number:       25
Euler implicit time integration for the turbulence model.

------------------ Convergence Criteria  ( Zone 0 ) ---------------------
Maximum number of solver subiterations: 25000.
Begin convergence monitoring at iteration 10.
Residual minimum value: 1e-11.5.
Cauchy series min. value: 5e-07.
Number of Cauchy elements: 500.
Begin windowed time average at iteration 0.

-------------------- Output Information ( Zone 0 ) ----------------------
File writing frequency: 
+------------------------------------+
|                     File| Frequency|
+------------------------------------+
|                  RESTART|       100|
|                 PARAVIEW|       100|
|         SURFACE_PARAVIEW|       100|
+------------------------------------+
Writing the convergence history file every 1 inner iterations.
Writing the screen convergence history every 25 inner iterations.
The tabular file format is CSV (.csv).
Convergence history file name: history.
Forces breakdown file name: forces_breakdown.dat.
Surface file name: surface.
Volume file name: vol_solution.
Restart file name: restart.dat.

------------- Config File Boundary Information ( Zone 0 ) ---------------
+-----------------------------------------------------------------------+
|                        Marker Type|                        Marker Name|
+-----------------------------------------------------------------------+
|                          Far-field|                          far-field|
+-----------------------------------------------------------------------+
|                     Heat flux wall|                               wall|
+-----------------------------------------------------------------------+

-------------------- Output Preprocessing ( Zone 0 ) --------------------

WARNING: SURFACE_PRESSURE_DROP can only be computed for at least 2 surfaces (outlet, inlet, ...)

  Info: Ignoring the following screen output fields:
  RMS_NU_TILDE
Screen output fields: INNER_ITER, RMS_DENSITY, RMS_MOMENTUM-X, RMS_MOMENTUM-Y, RMS_ENERGY, DRAG, LIFT, MOMENT_Z, LINSOL_RESIDUAL
History output group(s): ITER, RMS_RES, AERO_COEFF
Convergence field(s): LIFT
Warning: No (valid) fields chosen for time convergence monitoring. Time convergence monitoring inactive.
Volume output fields: COORDINATES, SOLUTION, PRIMITIVE

------------------- Geometry Preprocessing ( Zone 0 ) -------------------
Two dimensional problem.
66015 grid points before partitioning.
65610 volume elements before partitioning.
2 surface markers.
405 boundary elements in index 0 (Marker = far-field).
405 boundary elements in index 1 (Marker = wall).
Executing the partitioning functions.
Building the graph adjacency structure.
Calling ParMETIS... graph partitioning complete (888 edge cuts).
Distributing ParMETIS coloring.
Rebalancing vertices.
Rebalancing volume element connectivity.
Rebalancing markers and surface elements.
67791 vertices including ghost points. 
66494 interior elements including halo cells. 
66494 quadrilaterals.
Establishing MPI communication patterns.
Setting point connectivity.
Renumbering points (Reverse Cuthill McKee Ordering).
Recomputing point connectivity.
Setting element connectivity.
Checking the numerical grid orientation.
All volume elements are correctly orientend.
All surface elements are correctly orientend.
Identifying edges and vertices.
Setting the control volume structure.
Area of the computational grid: 177681.
Searching for the closest normal neighbors to the surfaces.
Storing a mapping from global to local point index.
Compute the surface curvature.
Max K: 1084.38. Mean K: 3.59037. Standard deviation K: 49.7608.
Checking for periodicity.
Computing mesh quality statistics for the dual control volumes.
+--------------------------------------------------------------+
|           Mesh Quality Metric|        Minimum|        Maximum|
+--------------------------------------------------------------+
|    Orthogonality Angle (deg.)|         82.757|             90|
|     CV Face Area Aspect Ratio|        1.00372|        11629.9|
|           CV Sub-Volume Ratio|              1|        2.23945|
+--------------------------------------------------------------+
Finding max control volume width.
Communicating number of neighbors.
Wetted area = 5.32649 m.
Area projection in the x-plane = 0.29702 m, y-plane = 2.61984 m.
Max. coordinate in the x-direction = 2.62 m, y-direction = 0.165086 m.
Min. coordinate in the x-direction = 0 m, y-direction = -0.119236 m.
Computing wall distances.

-------------------- Solver Preprocessing ( Zone 0 ) --------------------
Viscous flow: Computing pressure using the ideal gas law
based on the free-stream temperature and a density computed
from the Reynolds number.
Force coefficients computed using free-stream values.

-- Models:
+------------------------------------------------------------------------------+
|          Viscosity Model|        Conductivity Model|              Fluid Model|
+------------------------------------------------------------------------------+
|               SUTHERLAND|          CONSTANT_PRANDTL|             STANDARD_AIR|
+------------------------------------------------------------------------------+
-- Fluid properties:
+------------------------------------------------------------------------------+
|                  Name|    Dim. value|    Ref. value|      Unit|Non-dim. value|
+------------------------------------------------------------------------------+
|        Ref. Viscosity|     1.716e-05|       416.883|   N.s/m^2|   4.11626e-08|
|      Sutherland Temp.|        273.15|        288.16|         K|      0.947911|
|     Sutherland Const.|         110.4|        288.16|         K|       0.38312|
+------------------------------------------------------------------------------+
|        Prandtl (Lam.)|             -|             -|         -|          0.72|
|       Prandtl (Turb.)|             -|             -|         -|           0.9|
+------------------------------------------------------------------------------+
|          Gas Constant|       287.058|       401.881|  N.m/kg.K|      0.714286|
|      Spec. Heat Ratio|             -|             -|         -|           1.4|
+------------------------------------------------------------------------------+
-- Initial and free-stream conditions:
+------------------------------------------------------------------------------+
|                  Name|    Dim. value|    Ref. value|      Unit|Non-dim. value|
+------------------------------------------------------------------------------+
|       Static Pressure|        101333|        141867|        Pa|      0.714286|
|               Density|       1.22504|       1.22504|    kg/m^3|             1|
|           Temperature|        288.16|        288.16|         K|             1|
|          Total Energy|        210443|        115806|   m^2/s^2|        1.8172|
|            Velocity-X|       84.9591|       340.303|       m/s|      0.249657|
|            Velocity-Y|      -4.45252|       340.303|       m/s|     -0.013084|
|    Velocity Magnitude|       85.0757|       340.303|       m/s|          0.25|
+------------------------------------------------------------------------------+
|             Viscosity|   1.78935e-05|       416.883|   N.s/m^2|    4.2922e-08|
|          Conductivity|             -|        167537|   W/m^2.K|             -|
|     Turb. Kin. Energy|       27.1421|        115806|   m^2/s^2|   0.000234375|
|     Spec. Dissipation|        185822|       340.303|       1/s|       546.049|
+------------------------------------------------------------------------------+
|           Mach Number|             -|             -|         -|          0.25|
|       Reynolds Number|             -|             -|         -|   1.52602e+07|
+------------------------------------------------------------------------------+
Initialize Jacobian structure (Navier-Stokes). MG level: 0.
Initialize Jacobian structure (SST model).

------------------- Numerics Preprocessing ( Zone 0 ) -------------------

----------------- Integration Preprocessing ( Zone 0 ) ------------------

------------------- Iteration Preprocessing ( Zone 0 ) ------------------
Euler/Navier-Stokes/RANS fluid iteration.

------------------------------ Begin Solver -----------------------------

Simulation Run using the Single-zone Driver
WARNING: SU2 was not compiled for an AVX-capable architecture.
+--------------------------------------------------------------------------------------------------------------------+
|  Inner_Iter|    rms[Rho]|   rms[RhoU]|   rms[RhoV]|   rms[RhoE]|          CD|          CL|         CMz|   LinSolRes|
+--------------------------------------------------------------------------------------------------------------------+
|           0|   -3.343571|   -3.638138|   -3.361722|   -2.937505|    0.004810|   -0.161516|    0.038110|   -0.776747|
|          25|   -5.154250|   -4.751513|   -4.673539|   -4.753622|    0.001222|   -0.097777|    0.069155|   -0.673086|
|          50|   -5.682962|   -4.858636|   -5.056529|   -5.182130|    0.003112|   -0.078642|    0.061709|   -0.651663|
|          75|   -6.009732|   -5.044149|   -5.566830|   -5.459226|    0.005230|    0.004373|    0.082354|   -0.640308|
|         100|   -6.155652|   -5.267183|   -5.781229|   -5.636757|    0.009000|   -0.062527|    0.061144|   -0.682967|
+-----------------------------------------------------------------------+
|        File Writing Summary       |              Filename             |
+-----------------------------------------------------------------------+
|SU2 binary restart                 |restart.dat                        |
|Paraview                           |vol_solution.vtu                   |
|Paraview surface                   |surface.vtu                        |
+-----------------------------------------------------------------------+
+--------------------------------------------------------------------------------------------------------------------+
|  Inner_Iter|    rms[Rho]|   rms[RhoU]|   rms[RhoV]|   rms[RhoE]|          CD|          CL|         CMz|   LinSolRes|
+--------------------------------------------------------------------------------------------------------------------+
|         125|   -6.437326|   -5.567600|   -6.173169|   -5.914226|    0.007074|   -0.061554|    0.064553|   -0.658478|
|         150|   -6.857063|   -5.913747|   -6.386818|   -6.316337|    0.006912|   -0.047542|    0.068637|   -0.830141|
|         175|   -7.267434|   -6.280070|   -6.835711|   -6.727215|    0.007371|   -0.043443|    0.069255|   -0.565986|
|         200|   -7.322739|   -6.566009|   -6.987466|   -6.840709|    0.007425|   -0.044189|    0.069116|   -0.871932|
+-----------------------------------------------------------------------+
|        File Writing Summary       |              Filename             |
+-----------------------------------------------------------------------+
|SU2 binary restart                 |restart.dat                        |
|Paraview                           |vol_solution.vtu                   |
|Paraview surface                   |surface.vtu                        |
+-----------------------------------------------------------------------+
+--------------------------------------------------------------------------------------------------------------------+
|  Inner_Iter|    rms[Rho]|   rms[RhoU]|   rms[RhoV]|   rms[RhoE]|          CD|          CL|         CMz|   LinSolRes|
+--------------------------------------------------------------------------------------------------------------------+
|         225|   -7.742762|   -6.766903|   -7.285753|   -7.190067|    0.007386|   -0.043663|    0.069475|   -0.615144|
|         250|   -7.842982|   -6.968526|   -7.547732|   -7.341709|    0.007344|   -0.042816|    0.069825|   -0.823725|
|         275|   -8.051624|   -7.144054|   -7.636454|   -7.528239|    0.007347|   -0.041935|    0.070102|   -0.666450|
|         300|   -8.150090|   -7.282197|   -7.733806|   -7.644120|    0.007348|   -0.041587|    0.070177|   -0.678771|
+-----------------------------------------------------------------------+
|        File Writing Summary       |              Filename             |
+-----------------------------------------------------------------------+
|SU2 binary restart                 |restart.dat                        |
|Paraview                           |vol_solution.vtu                   |
|Paraview surface                   |surface.vtu                        |
+-----------------------------------------------------------------------+
+--------------------------------------------------------------------------------------------------------------------+
|  Inner_Iter|    rms[Rho]|   rms[RhoU]|   rms[RhoV]|   rms[RhoE]|          CD|          CL|         CMz|   LinSolRes|
+--------------------------------------------------------------------------------------------------------------------+
|         325|   -8.440454|   -7.409429|   -7.916787|   -7.866945|    0.007347|   -0.041169|    0.070304|   -0.527663|
|         350|   -8.566817|   -7.553212|   -8.095017|   -7.998561|    0.007370|   -0.041128|    0.070269|   -0.687080|
|         375|   -8.599378|   -7.666198|   -8.158388|   -8.056807|    0.007376|   -0.041009|    0.070320|   -0.683666|
|         400|   -8.611843|   -7.741303|   -8.196378|   -8.107306|    0.007368|   -0.040860|    0.070369|   -0.665545|
+-----------------------------------------------------------------------+
|        File Writing Summary       |              Filename             |
+-----------------------------------------------------------------------+
|SU2 binary restart                 |restart.dat                        |
|Paraview                           |vol_solution.vtu                   |
|Paraview surface                   |surface.vtu                        |
+-----------------------------------------------------------------------+
+--------------------------------------------------------------------------------------------------------------------+
|  Inner_Iter|    rms[Rho]|   rms[RhoU]|   rms[RhoV]|   rms[RhoE]|          CD|          CL|         CMz|   LinSolRes|
+--------------------------------------------------------------------------------------------------------------------+
|         425|   -8.681451|   -7.764782|   -8.295737|   -8.196517|    0.007373|   -0.040874|    0.070337|   -0.621458|
|         450|   -8.812327|   -7.836840|   -8.466841|   -8.341109|    0.007371|   -0.040766|    0.070374|   -0.618189|
|         475|   -8.926681|   -7.956072|   -8.595575|   -8.472273|    0.007366|   -0.040714|    0.070361|   -0.636103|
|         500|   -9.017679|   -8.043109|   -8.720142|   -8.561955|    0.007365|   -0.040744|    0.070317|   -0.648583|
+-----------------------------------------------------------------------+
|        File Writing Summary       |              Filename             |
+-----------------------------------------------------------------------+
|SU2 binary restart                 |restart.dat                        |
|Paraview                           |vol_solution.vtu                   |
|Paraview surface                   |surface.vtu                        |
+-----------------------------------------------------------------------+
+--------------------------------------------------------------------------------------------------------------------+
|  Inner_Iter|    rms[Rho]|   rms[RhoU]|   rms[RhoV]|   rms[RhoE]|          CD|          CL|         CMz|   LinSolRes|
+--------------------------------------------------------------------------------------------------------------------+
|         525|   -9.044624|   -8.122081|   -8.721025|   -8.601301|    0.007363|   -0.040701|    0.070312|   -0.648069|
|         550|   -9.066460|   -8.209809|   -8.717862|   -8.608429|    0.007366|   -0.040742|    0.070263|   -0.673402|
|         575|   -9.080912|   -8.250743|   -8.709636|   -8.634787|    0.007368|   -0.040807|    0.070220|   -0.768093|
|         600|   -9.160824|   -8.255733|   -8.773774|   -8.707876|    0.007365|   -0.040819|    0.070207|   -0.564675|
+-----------------------------------------------------------------------+
|        File Writing Summary       |              Filename             |
+-----------------------------------------------------------------------+
|SU2 binary restart                 |restart.dat                        |
|Paraview                           |vol_solution.vtu                   |
|Paraview surface                   |surface.vtu                        |
+-----------------------------------------------------------------------+
+--------------------------------------------------------------------------------------------------------------------+
|  Inner_Iter|    rms[Rho]|   rms[RhoU]|   rms[RhoV]|   rms[RhoE]|          CD|          CL|         CMz|   LinSolRes|
+--------------------------------------------------------------------------------------------------------------------+
|         625|   -9.137463|   -8.270029|   -8.846896|   -8.700095|    0.007370|   -0.040904|    0.070160|   -0.641306|
|         650|   -9.240759|   -8.347769|   -8.974118|   -8.828837|    0.007371|   -0.040955|    0.070140|   -0.737225|
|         675|   -9.353731|   -8.447475|   -9.131391|   -8.952769|    0.007370|   -0.040997|    0.070120|   -0.555459|
|         700|   -9.355325|   -8.531913|   -9.184353|   -8.985394|    0.007373|   -0.041068|    0.070089|   -0.665560|
+-----------------------------------------------------------------------+
|        File Writing Summary       |              Filename             |
+-----------------------------------------------------------------------+
|SU2 binary restart                 |restart.dat                        |
|Paraview                           |vol_solution.vtu                   |
|Paraview surface                   |surface.vtu                        |
+-----------------------------------------------------------------------+
+--------------------------------------------------------------------------------------------------------------------+
|  Inner_Iter|    rms[Rho]|   rms[RhoU]|   rms[RhoV]|   rms[RhoE]|          CD|          CL|         CMz|   LinSolRes|
+--------------------------------------------------------------------------------------------------------------------+
|         725|   -9.449976|   -8.601243|   -9.286663|   -9.090822|    0.007374|   -0.041105|    0.070076|   -0.659280|
|         750|   -9.449470|   -8.636975|   -9.280702|   -9.099407|    0.007375|   -0.041163|    0.070050|   -0.652339|
|         775|   -9.489894|   -8.662266|   -9.278881|   -9.150700|    0.007377|   -0.041212|    0.070032|   -0.636897|
|         800|   -9.519503|   -8.687781|   -9.264857|   -9.187889|    0.007379|   -0.041255|    0.070013|   -0.629954|
+-----------------------------------------------------------------------+
|        File Writing Summary       |              Filename             |
+-----------------------------------------------------------------------+
|SU2 binary restart                 |restart.dat                        |
|Paraview                           |vol_solution.vtu                   |
|Paraview surface                   |surface.vtu                        |
+-----------------------------------------------------------------------+
+--------------------------------------------------------------------------------------------------------------------+
|  Inner_Iter|    rms[Rho]|   rms[RhoU]|   rms[RhoV]|   rms[RhoE]|          CD|          CL|         CMz|   LinSolRes|
+--------------------------------------------------------------------------------------------------------------------+
|         825|   -9.528489|   -8.697050|   -9.231876|   -9.207337|    0.007382|   -0.041308|    0.069991|   -0.683278|
|         850|   -9.534188|   -8.699088|   -9.248640|   -9.212103|    0.007384|   -0.041343|    0.069978|   -0.678234|
|         875|   -9.544243|   -8.707259|   -9.268897|   -9.220608|    0.007387|   -0.041387|    0.069960|   -0.678341|
|         900|   -9.565720|   -8.718551|   -9.291315|   -9.243238|    0.007390|   -0.041432|    0.069942|   -0.672442|
+-----------------------------------------------------------------------+
|        File Writing Summary       |              Filename             |
+-----------------------------------------------------------------------+
|SU2 binary restart                 |restart.dat                        |
|Paraview                           |vol_solution.vtu                   |
|Paraview surface                   |surface.vtu                        |
+-----------------------------------------------------------------------+
+--------------------------------------------------------------------------------------------------------------------+
|  Inner_Iter|    rms[Rho]|   rms[RhoU]|   rms[RhoV]|   rms[RhoE]|          CD|          CL|         CMz|   LinSolRes|
+--------------------------------------------------------------------------------------------------------------------+
|         925|   -9.579145|   -8.726796|   -9.315472|   -9.257549|    0.007392|   -0.041469|    0.069928|   -0.672202|
|         950|   -9.598617|   -8.737086|   -9.347415|   -9.271241|    0.007395|   -0.041513|    0.069911|   -0.681476|
|         975|   -9.620744|   -8.751048|   -9.363381|   -9.294569|    0.007398|   -0.041554|    0.069896|   -0.688965|
|        1000|   -9.635265|   -8.764278|   -9.378935|   -9.306005|    0.007400|   -0.041590|    0.069882|   -0.689916|
+-----------------------------------------------------------------------+
|        File Writing Summary       |              Filename             |
+-----------------------------------------------------------------------+
|SU2 binary restart                 |restart.dat                        |
|Paraview                           |vol_solution.vtu                   |
|Paraview surface                   |surface.vtu                        |
+-----------------------------------------------------------------------+
+--------------------------------------------------------------------------------------------------------------------+
|  Inner_Iter|    rms[Rho]|   rms[RhoU]|   rms[RhoV]|   rms[RhoE]|          CD|          CL|         CMz|   LinSolRes|
+--------------------------------------------------------------------------------------------------------------------+
|        1025|   -9.649499|   -8.775261|   -9.386839|   -9.316128|    0.007403|   -0.041631|    0.069867|   -0.693754|
|        1050|   -9.635187|   -8.786423|   -9.386203|   -9.289228|    0.007405|   -0.041667|    0.069854|   -0.659681|
|        1075|   -9.671328|   -8.799965|   -9.408852|   -9.326696|    0.007408|   -0.041703|    0.069840|   -0.766550|
|        1100|   -9.700323|   -8.811146|   -9.421848|   -9.361147|    0.007410|   -0.041740|    0.069826|   -0.705440|
+-----------------------------------------------------------------------+
|        File Writing Summary       |              Filename             |
+-----------------------------------------------------------------------+
|SU2 binary restart                 |restart.dat                        |
|Paraview                           |vol_solution.vtu                   |
|Paraview surface                   |surface.vtu                        |
+-----------------------------------------------------------------------+
+--------------------------------------------------------------------------------------------------------------------+
|  Inner_Iter|    rms[Rho]|   rms[RhoU]|   rms[RhoV]|   rms[RhoE]|          CD|          CL|         CMz|   LinSolRes|
+--------------------------------------------------------------------------------------------------------------------+
|        1125|   -9.718270|   -8.821055|   -9.440065|   -9.377108|    0.007412|   -0.041771|    0.069815|   -0.710475|
|        1150|   -9.734480|   -8.832229|   -9.459978|   -9.390098|    0.007414|   -0.041803|    0.069803|   -0.720615|
|        1175|   -9.732594|   -8.844321|   -9.472443|   -9.378179|    0.007417|   -0.041838|    0.069790|   -0.572237|
|        1200|   -9.774683|   -8.856188|   -9.503526|   -9.428375|    0.007419|   -0.041867|    0.069780|   -0.741848|
+-----------------------------------------------------------------------+
|        File Writing Summary       |              Filename             |
+-----------------------------------------------------------------------+
|SU2 binary restart                 |restart.dat                        |
|Paraview                           |vol_solution.vtu                   |
|Paraview surface                   |surface.vtu                        |
+-----------------------------------------------------------------------+
+--------------------------------------------------------------------------------------------------------------------+
|  Inner_Iter|    rms[Rho]|   rms[RhoU]|   rms[RhoV]|   rms[RhoE]|          CD|          CL|         CMz|   LinSolRes|
+--------------------------------------------------------------------------------------------------------------------+
|        1225|   -9.788712|   -8.866908|   -9.524038|   -9.439064|    0.007421|   -0.041895|    0.069769|   -0.755965|
|        1250|   -9.806975|   -8.877175|   -9.542390|   -9.457222|    0.007423|   -0.041922|    0.069759|   -0.766151|
|        1275|   -9.802663|   -8.887346|   -9.556801|   -9.444237|    0.007425|   -0.041948|    0.069750|   -0.619602|
|        1300|   -9.807049|   -8.899270|   -9.579575|   -9.443967|    0.007427|   -0.041975|    0.069740|   -0.666111|
+-----------------------------------------------------------------------+
|        File Writing Summary       |              Filename             |
+-----------------------------------------------------------------------+
|SU2 binary restart                 |restart.dat                        |
|Paraview                           |vol_solution.vtu                   |
|Paraview surface                   |surface.vtu                        |
+-----------------------------------------------------------------------+
+--------------------------------------------------------------------------------------------------------------------+
|  Inner_Iter|    rms[Rho]|   rms[RhoU]|   rms[RhoV]|   rms[RhoE]|          CD|          CL|         CMz|   LinSolRes|
+--------------------------------------------------------------------------------------------------------------------+
|        1325|   -9.826189|   -8.910435|   -9.608174|   -9.464791|    0.007428|   -0.042000|    0.069731|   -0.686694|
|        1350|   -9.867667|   -8.920692|   -9.647613|   -9.509554|    0.007430|   -0.042023|    0.069722|   -0.765256|
|        1375|   -9.858732|   -8.928826|   -9.659802|   -9.496913|    0.007432|   -0.042042|    0.069715|   -0.568714|
|        1400|   -9.909602|   -8.938336|   -9.699099|   -9.557084|    0.007433|   -0.042060|    0.069709|   -0.727890|
+-----------------------------------------------------------------------+
|        File Writing Summary       |              Filename             |
+-----------------------------------------------------------------------+
|SU2 binary restart                 |restart.dat                        |
|Paraview                           |vol_solution.vtu                   |
|Paraview surface                   |surface.vtu                        |
+-----------------------------------------------------------------------+
+--------------------------------------------------------------------------------------------------------------------+
|  Inner_Iter|    rms[Rho]|   rms[RhoU]|   rms[RhoV]|   rms[RhoE]|          CD|          CL|         CMz|   LinSolRes|
+--------------------------------------------------------------------------------------------------------------------+
|        1425|   -9.886010|   -8.946686|   -9.707905|   -9.523969|    0.007434|   -0.042076|    0.069703|   -0.817195|
|        1450|   -9.908187|   -8.955051|   -9.737791|   -9.555824|    0.007436|   -0.042090|    0.069697|   -0.980707|
|        1475|   -9.884137|   -8.962528|   -9.746166|   -9.526260|    0.007437|   -0.042103|    0.069692|   -0.826951|
|        1500|   -9.904258|   -8.970016|   -9.777252|   -9.551661|    0.007438|   -0.042116|    0.069687|   -0.764571|
+-----------------------------------------------------------------------+
|        File Writing Summary       |              Filename             |
+-----------------------------------------------------------------------+
|SU2 binary restart                 |restart.dat                        |
|Paraview                           |vol_solution.vtu                   |
|Paraview surface                   |surface.vtu                        |
+-----------------------------------------------------------------------+
+--------------------------------------------------------------------------------------------------------------------+
|  Inner_Iter|    rms[Rho]|   rms[RhoU]|   rms[RhoV]|   rms[RhoE]|          CD|          CL|         CMz|   LinSolRes|
+--------------------------------------------------------------------------------------------------------------------+
|        1525|   -9.924182|   -8.977338|   -9.807326|   -9.577339|    0.007439|   -0.042127|    0.069683|   -0.799713|
|        1550|   -9.927942|   -8.984301|   -9.838648|   -9.582492|    0.007440|   -0.042136|    0.069679|   -0.837015|
|        1575|   -9.907006|   -8.990425|   -9.847625|   -9.547855|    0.007441|   -0.042144|    0.069676|   -0.703453|
|        1600|   -9.920508|   -8.997036|   -9.870151|   -9.555866|    0.007442|   -0.042152|    0.069673|   -0.724233|
+-----------------------------------------------------------------------+
|        File Writing Summary       |              Filename             |
+-----------------------------------------------------------------------+
|SU2 binary restart                 |restart.dat                        |
|Paraview                           |vol_solution.vtu                   |
|Paraview surface                   |surface.vtu                        |
+-----------------------------------------------------------------------+
+--------------------------------------------------------------------------------------------------------------------+
|  Inner_Iter|    rms[Rho]|   rms[RhoU]|   rms[RhoV]|   rms[RhoE]|          CD|          CL|         CMz|   LinSolRes|
+--------------------------------------------------------------------------------------------------------------------+
|        1625|   -9.927602|   -9.003968|   -9.893804|   -9.570503|    0.007443|   -0.042159|    0.069670|   -0.742567|
|        1650|   -9.909072|   -9.013043|   -9.894614|   -9.561477|    0.007444|   -0.042167|    0.069666|   -0.687198|
|        1675|   -9.913863|   -9.025290|   -9.933118|   -9.568122|    0.007445|   -0.042176|    0.069662|   -0.716236|
|        1700|   -9.960238|   -9.035362|   -9.996269|   -9.620870|    0.007447|   -0.042181|    0.069659|   -0.812646|
+-----------------------------------------------------------------------+
|        File Writing Summary       |              Filename             |
+-----------------------------------------------------------------------+
|SU2 binary restart                 |restart.dat                        |
|Paraview                           |vol_solution.vtu                   |
|Paraview surface                   |surface.vtu                        |
+-----------------------------------------------------------------------+
+--------------------------------------------------------------------------------------------------------------------+
|  Inner_Iter|    rms[Rho]|   rms[RhoU]|   rms[RhoV]|   rms[RhoE]|          CD|          CL|         CMz|   LinSolRes|
+--------------------------------------------------------------------------------------------------------------------+
|        1725|   -9.947810|   -9.041573|  -10.005555|   -9.608162|    0.007447|   -0.042184|    0.069658|   -0.720140|
|        1750|   -9.978071|   -9.048166|  -10.033130|   -9.659048|    0.007448|   -0.042187|    0.069656|   -0.780859|
|        1775|   -9.943645|   -9.053835|   -9.992412|   -9.614731|    0.007449|   -0.042187|    0.069655|   -0.762205|
|        1800|   -9.937068|   -9.059807|   -9.999827|   -9.609482|    0.007449|   -0.042188|    0.069654|   -0.755928|
+-----------------------------------------------------------------------+
|        File Writing Summary       |              Filename             |
+-----------------------------------------------------------------------+
|SU2 binary restart                 |restart.dat                        |
|Paraview                           |vol_solution.vtu                   |
|Paraview surface                   |surface.vtu                        |
+-----------------------------------------------------------------------+
+--------------------------------------------------------------------------------------------------------------------+
|  Inner_Iter|    rms[Rho]|   rms[RhoU]|   rms[RhoV]|   rms[RhoE]|          CD|          CL|         CMz|   LinSolRes|
+--------------------------------------------------------------------------------------------------------------------+
|        1825|   -9.942154|   -9.065634|  -10.046390|   -9.618427|    0.007450|   -0.042189|    0.069653|   -0.712235|
|        1850|   -9.938257|   -9.070827|  -10.012479|   -9.616658|    0.007451|   -0.042188|    0.069653|   -0.747933|
|        1875|   -9.954258|   -9.076991|  -10.068656|   -9.639767|    0.007451|   -0.042187|    0.069652|   -0.702145|
|        1900|   -9.969772|   -9.082965|  -10.082460|   -9.668484|    0.007452|   -0.042186|    0.069652|   -0.797730|
+-----------------------------------------------------------------------+
|        File Writing Summary       |              Filename             |
+-----------------------------------------------------------------------+
|SU2 binary restart                 |restart.dat                        |
|Paraview                           |vol_solution.vtu                   |
|Paraview surface                   |surface.vtu                        |
+-----------------------------------------------------------------------+
+--------------------------------------------------------------------------------------------------------------------+
|  Inner_Iter|    rms[Rho]|   rms[RhoU]|   rms[RhoV]|   rms[RhoE]|          CD|          CL|         CMz|   LinSolRes|
+--------------------------------------------------------------------------------------------------------------------+
|        1925|   -9.967577|   -9.089724|  -10.087754|   -9.676544|    0.007452|   -0.042184|    0.069652|   -0.793981|
|        1950|   -9.970385|   -9.095953|  -10.090725|   -9.680491|    0.007453|   -0.042182|    0.069652|   -0.787763|
|        1975|   -9.921589|   -9.103264|  -10.043645|   -9.613603|    0.007453|   -0.042179|    0.069652|   -0.761455|
|        2000|   -9.950555|   -9.112887|  -10.063907|   -9.660910|    0.007454|   -0.042173|    0.069653|   -0.680421|
+-----------------------------------------------------------------------+
|        File Writing Summary       |              Filename             |
+-----------------------------------------------------------------------+
|SU2 binary restart                 |restart.dat                        |
|Paraview                           |vol_solution.vtu                   |
|Paraview surface                   |surface.vtu                        |
+-----------------------------------------------------------------------+
+--------------------------------------------------------------------------------------------------------------------+
|  Inner_Iter|    rms[Rho]|   rms[RhoU]|   rms[RhoV]|   rms[RhoE]|          CD|          CL|         CMz|   LinSolRes|
+--------------------------------------------------------------------------------------------------------------------+
|        2025|   -9.967820|   -9.121756|  -10.083313|   -9.693381|    0.007455|   -0.042168|    0.069653|   -0.742829|
|        2050|   -9.965253|   -9.127991|  -10.076420|   -9.695276|    0.007455|   -0.042164|    0.069654|   -0.724494|
|        2075|   -9.962930|   -9.134355|  -10.071035|   -9.698174|    0.007455|   -0.042159|    0.069655|   -0.716148|
|        2100|   -9.933398|   -9.141713|  -10.043050|   -9.648678|    0.007456|   -0.042154|    0.069656|   -0.702019|
+-----------------------------------------------------------------------+
|        File Writing Summary       |              Filename             |
+-----------------------------------------------------------------------+
|SU2 binary restart                 |restart.dat                        |
|Paraview                           |vol_solution.vtu                   |
|Paraview surface                   |surface.vtu                        |
+-----------------------------------------------------------------------+
+--------------------------------------------------------------------------------------------------------------------+
|  Inner_Iter|    rms[Rho]|   rms[RhoU]|   rms[RhoV]|   rms[RhoE]|          CD|          CL|         CMz|   LinSolRes|
+--------------------------------------------------------------------------------------------------------------------+
|        2125|   -9.981336|   -9.150520|  -10.070476|   -9.753010|    0.007456|   -0.042146|    0.069658|   -0.759674|
|        2150|   -9.963659|   -9.157993|  -10.062190|   -9.716745|    0.007457|   -0.042140|    0.069659|   -0.821448|
|        2175|   -9.989939|   -9.164658|  -10.076211|   -9.798349|    0.007457|   -0.042134|    0.069661|   -0.741731|
|        2200|   -9.974982|   -9.170476|  -10.049985|   -9.757574|    0.007458|   -0.042127|    0.069663|   -0.814471|
+-----------------------------------------------------------------------+
|        File Writing Summary       |              Filename             |
+-----------------------------------------------------------------------+
|SU2 binary restart                 |restart.dat                        |
|Paraview                           |vol_solution.vtu                   |
|Paraview surface                   |surface.vtu                        |
+-----------------------------------------------------------------------+
+--------------------------------------------------------------------------------------------------------------------+
|  Inner_Iter|    rms[Rho]|   rms[RhoU]|   rms[RhoV]|   rms[RhoE]|          CD|          CL|         CMz|   LinSolRes|
+--------------------------------------------------------------------------------------------------------------------+
|        2225|   -9.980217|   -9.177277|  -10.062980|   -9.772688|    0.007458|   -0.042120|    0.069664|   -0.898682|
|        2250|   -9.990167|   -9.183966|  -10.058309|   -9.812935|    0.007458|   -0.042113|    0.069666|   -0.710643|
|        2275|   -9.972413|   -9.189897|  -10.038059|   -9.765030|    0.007458|   -0.042106|    0.069668|   -0.784625|
|        2300|   -9.984611|   -9.196886|  -10.056185|   -9.800229|    0.007459|   -0.042099|    0.069669|   -0.812313|
+-----------------------------------------------------------------------+
|        File Writing Summary       |              Filename             |
+-----------------------------------------------------------------------+
|SU2 binary restart                 |restart.dat                        |
|Paraview                           |vol_solution.vtu                   |
|Paraview surface                   |surface.vtu                        |
+-----------------------------------------------------------------------+
+--------------------------------------------------------------------------------------------------------------------+
|  Inner_Iter|    rms[Rho]|   rms[RhoU]|   rms[RhoV]|   rms[RhoE]|          CD|          CL|         CMz|   LinSolRes|
+--------------------------------------------------------------------------------------------------------------------+
|        2325|   -9.984997|   -9.203397|  -10.047884|   -9.814798|    0.007459|   -0.042091|    0.069672|   -0.783987|
|        2350|   -9.985442|   -9.209945|  -10.053770|   -9.808585|    0.007459|   -0.042083|    0.069673|   -0.799287|
|        2375|   -9.986986|   -9.216687|  -10.051666|   -9.825265|    0.007460|   -0.042076|    0.069675|   -0.768867|
|        2400|   -9.985272|   -9.223680|  -10.055142|   -9.820746|    0.007460|   -0.042067|    0.069678|   -0.785518|
+-----------------------------------------------------------------------+
|        File Writing Summary       |              Filename             |
+-----------------------------------------------------------------------+
|SU2 binary restart                 |restart.dat                        |
|Paraview                           |vol_solution.vtu                   |
|Paraview surface                   |surface.vtu                        |
+-----------------------------------------------------------------------+
+--------------------------------------------------------------------------------------------------------------------+
|  Inner_Iter|    rms[Rho]|   rms[RhoU]|   rms[RhoV]|   rms[RhoE]|          CD|          CL|         CMz|   LinSolRes|
+--------------------------------------------------------------------------------------------------------------------+
|        2425|   -9.988808|   -9.230181|  -10.046873|   -9.834030|    0.007460|   -0.042060|    0.069680|   -0.755773|
|        2450|   -9.985374|   -9.236899|  -10.052152|   -9.828472|    0.007460|   -0.042052|    0.069682|   -0.770793|
|        2475|   -9.989008|   -9.243285|  -10.043684|   -9.844210|    0.007461|   -0.042043|    0.069684|   -0.741427|
|        2500|   -9.987175|   -9.250063|  -10.049040|   -9.837385|    0.007461|   -0.042035|    0.069686|   -0.759855|
+-----------------------------------------------------------------------+
|        File Writing Summary       |              Filename             |
+-----------------------------------------------------------------------+
|SU2 binary restart                 |restart.dat                        |
|Paraview                           |vol_solution.vtu                   |
|Paraview surface                   |surface.vtu                        |
+-----------------------------------------------------------------------+
+--------------------------------------------------------------------------------------------------------------------+
|  Inner_Iter|    rms[Rho]|   rms[RhoU]|   rms[RhoV]|   rms[RhoE]|          CD|          CL|         CMz|   LinSolRes|
+--------------------------------------------------------------------------------------------------------------------+
|        2525|   -9.989716|   -9.256704|  -10.043032|   -9.853918|    0.007461|   -0.042027|    0.069688|   -0.729080|
|        2550|   -9.987934|   -9.263558|  -10.047339|   -9.846854|    0.007461|   -0.042019|    0.069691|   -0.747754|
|        2575|   -9.991500|   -9.270182|  -10.042259|   -9.863044|    0.007462|   -0.042010|    0.069693|   -0.717385|
|        2600|   -9.989189|   -9.277249|  -10.048151|   -9.857367|    0.007462|   -0.042002|    0.069695|   -0.736648|
+-----------------------------------------------------------------------+
|        File Writing Summary       |              Filename             |
+-----------------------------------------------------------------------+
|SU2 binary restart                 |restart.dat                        |
|Paraview                           |vol_solution.vtu                   |
|Paraview surface                   |surface.vtu                        |
+-----------------------------------------------------------------------+
+--------------------------------------------------------------------------------------------------------------------+
|  Inner_Iter|    rms[Rho]|   rms[RhoU]|   rms[RhoV]|   rms[RhoE]|          CD|          CL|         CMz|   LinSolRes|
+--------------------------------------------------------------------------------------------------------------------+
|        2625|   -9.993071|   -9.283909|  -10.042864|   -9.873463|    0.007462|   -0.041994|    0.069697|   -0.707474|
|        2650|   -9.991304|   -9.290951|  -10.050672|   -9.867828|    0.007462|   -0.041985|    0.069700|   -0.726121|
|        2675|   -9.994825|   -9.297742|  -10.046434|   -9.884871|    0.007462|   -0.041977|    0.069702|   -0.699166|
|        2700|   -9.993570|   -9.304908|  -10.053742|   -9.878829|    0.007463|   -0.041969|    0.069704|   -0.717824|
+-----------------------------------------------------------------------+
|        File Writing Summary       |              Filename             |
+-----------------------------------------------------------------------+
|SU2 binary restart                 |restart.dat                        |
|Paraview                           |vol_solution.vtu                   |
|Paraview surface                   |surface.vtu                        |
+-----------------------------------------------------------------------+
+--------------------------------------------------------------------------------------------------------------------+
|  Inner_Iter|    rms[Rho]|   rms[RhoU]|   rms[RhoV]|   rms[RhoE]|          CD|          CL|         CMz|   LinSolRes|
+--------------------------------------------------------------------------------------------------------------------+
|        2725|   -9.997122|   -9.311713|  -10.050632|   -9.896067|    0.007463|   -0.041960|    0.069707|   -0.690738|
|        2750|   -9.995675|   -9.318912|  -10.058069|   -9.890419|    0.007463|   -0.041952|    0.069709|   -0.710046|
|        2775|   -9.999673|   -9.325751|  -10.054878|   -9.907543|    0.007463|   -0.041944|    0.069711|   -0.683893|
|        2800|   -9.998128|   -9.333041|  -10.062777|   -9.901632|    0.007463|   -0.041935|    0.069714|   -0.703170|
+-----------------------------------------------------------------------+
|        File Writing Summary       |              Filename             |
+-----------------------------------------------------------------------+
|SU2 binary restart                 |restart.dat                        |
|Paraview                           |vol_solution.vtu                   |
|Paraview surface                   |surface.vtu                        |
+-----------------------------------------------------------------------+
+--------------------------------------------------------------------------------------------------------------------+
|  Inner_Iter|    rms[Rho]|   rms[RhoU]|   rms[RhoV]|   rms[RhoE]|          CD|          CL|         CMz|   LinSolRes|
+--------------------------------------------------------------------------------------------------------------------+
|        2825|  -10.001999|   -9.339927|  -10.059645|   -9.919231|    0.007464|   -0.041927|    0.069716|   -0.676776|
|        2850|  -10.006111|   -9.347371|  -10.070341|   -9.937141|    0.007464|   -0.041919|    0.069718|   -0.730195|
|        2875|  -10.006050|   -9.354689|  -10.073485|   -9.943880|    0.007464|   -0.041911|    0.069721|   -0.727045|
|        2900|  -10.008797|   -9.361907|  -10.074122|   -9.950501|    0.007464|   -0.041902|    0.069723|   -0.724298|
+-----------------------------------------------------------------------+
|        File Writing Summary       |              Filename             |
+-----------------------------------------------------------------------+
|SU2 binary restart                 |restart.dat                        |
|Paraview                           |vol_solution.vtu                   |
|Paraview surface                   |surface.vtu                        |
+-----------------------------------------------------------------------+
+--------------------------------------------------------------------------------------------------------------------+
|  Inner_Iter|    rms[Rho]|   rms[RhoU]|   rms[RhoV]|   rms[RhoE]|          CD|          CL|         CMz|   LinSolRes|
+--------------------------------------------------------------------------------------------------------------------+
|        2925|  -10.012847|   -9.369356|  -10.078932|   -9.973659|    0.007464|   -0.041894|    0.069725|   -0.599680|
|        2950|  -10.000456|   -9.376945|  -10.068702|   -9.911559|    0.007464|   -0.041885|    0.069728|   -0.686095|
|        2975|  -10.013608|   -9.384840|  -10.088398|   -9.970721|    0.007465|   -0.041877|    0.069730|   -0.717436|
|        3000|  -10.014231|   -9.392359|  -10.093291|   -9.979259|    0.007465|   -0.041869|    0.069732|   -0.716028|
+-----------------------------------------------------------------------+
|        File Writing Summary       |              Filename             |
+-----------------------------------------------------------------------+
|SU2 binary restart                 |restart.dat                        |
|Paraview                           |vol_solution.vtu                   |
|Paraview surface                   |surface.vtu                        |
+-----------------------------------------------------------------------+
+--------------------------------------------------------------------------------------------------------------------+
|  Inner_Iter|    rms[Rho]|   rms[RhoU]|   rms[RhoV]|   rms[RhoE]|          CD|          CL|         CMz|   LinSolRes|
+--------------------------------------------------------------------------------------------------------------------+
|        3025|  -10.006611|   -9.399162|  -10.084483|   -9.934045|    0.007465|   -0.041861|    0.069735|   -0.678190|
|        3050|  -10.014577|   -9.407126|  -10.101632|   -9.970570|    0.007465|   -0.041853|    0.069737|   -0.766468|
|        3075|  -10.020272|   -9.414940|  -10.109966|   -9.999507|    0.007465|   -0.041845|    0.069739|   -0.709696|
|        3100|  -10.021436|   -9.422532|  -10.113267|  -10.006765|    0.007465|   -0.041837|    0.069741|   -0.707995|
+-----------------------------------------------------------------------+
|        File Writing Summary       |              Filename             |
+-----------------------------------------------------------------------+
|SU2 binary restart                 |restart.dat                        |
|Paraview                           |vol_solution.vtu                   |
|Paraview surface                   |surface.vtu                        |
+-----------------------------------------------------------------------+
+--------------------------------------------------------------------------------------------------------------------+
|  Inner_Iter|    rms[Rho]|   rms[RhoU]|   rms[RhoV]|   rms[RhoE]|          CD|          CL|         CMz|   LinSolRes|
+--------------------------------------------------------------------------------------------------------------------+
|        3125|  -10.023485|   -9.430004|  -10.116691|  -10.013200|    0.007465|   -0.041829|    0.069744|   -0.706051|
|        3150|  -10.028391|   -9.437610|  -10.121958|  -10.039125|    0.007466|   -0.041821|    0.069746|   -0.582956|
|        3175|  -10.027280|   -9.445223|  -10.127241|  -10.026658|    0.007466|   -0.041814|    0.069748|   -0.703792|
|        3200|  -10.027914|   -9.452879|  -10.132178|  -10.033354|    0.007466|   -0.041806|    0.069750|   -0.702365|
+-----------------------------------------------------------------------+
|        File Writing Summary       |              Filename             |
+-----------------------------------------------------------------------+
|SU2 binary restart                 |restart.dat                        |
|Paraview                           |vol_solution.vtu                   |
|Paraview surface                   |surface.vtu                        |
+-----------------------------------------------------------------------+
+--------------------------------------------------------------------------------------------------------------------+
|  Inner_Iter|    rms[Rho]|   rms[RhoU]|   rms[RhoV]|   rms[RhoE]|          CD|          CL|         CMz|   LinSolRes|
+--------------------------------------------------------------------------------------------------------------------+
|        3225|  -10.030239|   -9.460458|  -10.135831|  -10.040890|    0.007466|   -0.041799|    0.069752|   -0.701360|
|        3250|  -10.035089|   -9.468017|  -10.141978|  -10.067198|    0.007466|   -0.041792|    0.069755|   -0.577301|
|        3275|  -10.033873|   -9.475732|  -10.147583|  -10.053069|    0.007466|   -0.041784|    0.069757|   -0.698450|
|        3300|  -10.035526|   -9.483394|  -10.154254|  -10.062488|    0.007466|   -0.041777|    0.069759|   -0.696242|
+-----------------------------------------------------------------------+
|        File Writing Summary       |              Filename             |
+-----------------------------------------------------------------------+
|SU2 binary restart                 |restart.dat                        |
|Paraview                           |vol_solution.vtu                   |
|Paraview surface                   |surface.vtu                        |
+-----------------------------------------------------------------------+
+--------------------------------------------------------------------------------------------------------------------+
|  Inner_Iter|    rms[Rho]|   rms[RhoU]|   rms[RhoV]|   rms[RhoE]|          CD|          CL|         CMz|   LinSolRes|
+--------------------------------------------------------------------------------------------------------------------+
|        3325|  -10.037455|   -9.491082|  -10.158945|  -10.070885|    0.007466|   -0.041770|    0.069761|   -0.695352|
|        3350|  -10.039673|   -9.498446|  -10.164196|  -10.077134|    0.007466|   -0.041763|    0.069763|   -0.693384|
|        3375|  -10.040755|   -9.505720|  -10.170109|  -10.083886|    0.007467|   -0.041757|    0.069765|   -0.692814|
|        3400|  -10.043021|   -9.513248|  -10.175255|  -10.091064|    0.007467|   -0.041750|    0.069766|   -0.692228|
+-----------------------------------------------------------------------+
|        File Writing Summary       |              Filename             |
+-----------------------------------------------------------------------+
|SU2 binary restart                 |restart.dat                        |
|Paraview                           |vol_solution.vtu                   |
|Paraview surface                   |surface.vtu                        |
+-----------------------------------------------------------------------+
+--------------------------------------------------------------------------------------------------------------------+
|  Inner_Iter|    rms[Rho]|   rms[RhoU]|   rms[RhoV]|   rms[RhoE]|          CD|          CL|         CMz|   LinSolRes|
+--------------------------------------------------------------------------------------------------------------------+
|        3425|  -10.045009|   -9.521008|  -10.180646|  -10.098591|    0.007467|   -0.041743|    0.069768|   -0.691748|
|        3450|  -10.046355|   -9.528682|  -10.186393|  -10.104975|    0.007467|   -0.041737|    0.069770|   -0.691346|
|        3475|  -10.048490|   -9.535921|  -10.192477|  -10.111623|    0.007467|   -0.041730|    0.069772|   -0.690531|
|        3500|  -10.050430|   -9.543345|  -10.199604|  -10.119781|    0.007467|   -0.041724|    0.069774|   -0.690090|
+-----------------------------------------------------------------------+
|        File Writing Summary       |              Filename             |
+-----------------------------------------------------------------------+
|SU2 binary restart                 |restart.dat                        |
|Paraview                           |vol_solution.vtu                   |
|Paraview surface                   |surface.vtu                        |
+-----------------------------------------------------------------------+
+--------------------------------------------------------------------------------------------------------------------+
|  Inner_Iter|    rms[Rho]|   rms[RhoU]|   rms[RhoV]|   rms[RhoE]|          CD|          CL|         CMz|   LinSolRes|
+--------------------------------------------------------------------------------------------------------------------+
|        3525|  -10.052285|   -9.551055|  -10.205856|  -10.127281|    0.007467|   -0.041718|    0.069776|   -0.689515|
|        3550|  -10.054237|   -9.558546|  -10.212035|  -10.134298|    0.007467|   -0.041711|    0.069777|   -0.688622|
|        3575|  -10.056061|   -9.566012|  -10.218276|  -10.141476|    0.007467|   -0.041705|    0.069779|   -0.687649|
|        3600|  -10.057976|   -9.573589|  -10.223970|  -10.148992|    0.007467|   -0.041699|    0.069781|   -0.686955|
+-----------------------------------------------------------------------+
|        File Writing Summary       |              Filename             |
+-----------------------------------------------------------------------+
|SU2 binary restart                 |restart.dat                        |
|Paraview                           |vol_solution.vtu                   |
|Paraview surface                   |surface.vtu                        |
+-----------------------------------------------------------------------+
+--------------------------------------------------------------------------------------------------------------------+
|  Inner_Iter|    rms[Rho]|   rms[RhoU]|   rms[RhoV]|   rms[RhoE]|          CD|          CL|         CMz|   LinSolRes|
+--------------------------------------------------------------------------------------------------------------------+
|        3625|  -10.059951|   -9.581153|  -10.229706|  -10.156121|    0.007467|   -0.041693|    0.069783|   -0.686437|
|        3650|  -10.061650|   -9.588673|  -10.235621|  -10.162834|    0.007467|   -0.041688|    0.069784|   -0.686122|
|        3675|  -10.063614|   -9.596178|  -10.241248|  -10.169929|    0.007468|   -0.041682|    0.069786|   -0.685951|
|        3700|  -10.065544|   -9.603742|  -10.247221|  -10.177017|    0.007468|   -0.041676|    0.069788|   -0.685763|
+-----------------------------------------------------------------------+
|        File Writing Summary       |              Filename             |
+-----------------------------------------------------------------------+
|SU2 binary restart                 |restart.dat                        |
|Paraview                           |vol_solution.vtu                   |
|Paraview surface                   |surface.vtu                        |
+-----------------------------------------------------------------------+
+--------------------------------------------------------------------------------------------------------------------+
|  Inner_Iter|    rms[Rho]|   rms[RhoU]|   rms[RhoV]|   rms[RhoE]|          CD|          CL|         CMz|   LinSolRes|
+--------------------------------------------------------------------------------------------------------------------+
|        3725|  -10.067348|   -9.611295|  -10.253343|  -10.184029|    0.007468|   -0.041671|    0.069789|   -0.685412|
|        3750|  -10.069310|   -9.618784|  -10.259477|  -10.191162|    0.007468|   -0.041665|    0.069791|   -0.684692|
|        3775|  -10.071271|   -9.626306|  -10.265840|  -10.198659|    0.007468|   -0.041660|    0.069792|   -0.683802|
|        3800|  -10.073205|   -9.633876|  -10.272082|  -10.206265|    0.007468|   -0.041654|    0.069794|   -0.683022|
+-----------------------------------------------------------------------+
|        File Writing Summary       |              Filename             |
+-----------------------------------------------------------------------+
|SU2 binary restart                 |restart.dat                        |
|Paraview                           |vol_solution.vtu                   |
|Paraview surface                   |surface.vtu                        |
+-----------------------------------------------------------------------+
+--------------------------------------------------------------------------------------------------------------------+
|  Inner_Iter|    rms[Rho]|   rms[RhoU]|   rms[RhoV]|   rms[RhoE]|          CD|          CL|         CMz|   LinSolRes|
+--------------------------------------------------------------------------------------------------------------------+
|        3825|  -10.075161|   -9.641404|  -10.278335|  -10.213474|    0.007468|   -0.041649|    0.069795|   -0.682429|
|        3850|  -10.077077|   -9.648911|  -10.284588|  -10.220572|    0.007468|   -0.041644|    0.069797|   -0.682141|
|        3875|  -10.078995|   -9.656443|  -10.290679|  -10.227568|    0.007468|   -0.041639|    0.069798|   -0.682149|
|        3900|  -10.080928|   -9.663972|  -10.296761|  -10.234402|    0.007468|   -0.041634|    0.069800|   -0.682208|
+-----------------------------------------------------------------------+
|        File Writing Summary       |              Filename             |
+-----------------------------------------------------------------------+
|SU2 binary restart                 |restart.dat                        |
|Paraview                           |vol_solution.vtu                   |
|Paraview surface                   |surface.vtu                        |
+-----------------------------------------------------------------------+
+--------------------------------------------------------------------------------------------------------------------+
|  Inner_Iter|    rms[Rho]|   rms[RhoU]|   rms[RhoV]|   rms[RhoE]|          CD|          CL|         CMz|   LinSolRes|
+--------------------------------------------------------------------------------------------------------------------+
|        3925|  -10.082818|   -9.671483|  -10.302872|  -10.241246|    0.007468|   -0.041629|    0.069801|   -0.682146|
|        3950|  -10.084783|   -9.678991|  -10.308938|  -10.248357|    0.007468|   -0.041624|    0.069803|   -0.681838|
|        3975|  -10.086768|   -9.686516|  -10.315128|  -10.255660|    0.007468|   -0.041619|    0.069804|   -0.681278|
|        4000|  -10.088722|   -9.694042|  -10.321422|  -10.262969|    0.007468|   -0.041614|    0.069805|   -0.680670|
+-----------------------------------------------------------------------+
|        File Writing Summary       |              Filename             |
+-----------------------------------------------------------------------+
|SU2 binary restart                 |restart.dat                        |
|Paraview                           |vol_solution.vtu                   |
|Paraview surface                   |surface.vtu                        |
+-----------------------------------------------------------------------+
+--------------------------------------------------------------------------------------------------------------------+
|  Inner_Iter|    rms[Rho]|   rms[RhoU]|   rms[RhoV]|   rms[RhoE]|          CD|          CL|         CMz|   LinSolRes|
+--------------------------------------------------------------------------------------------------------------------+
|        4025|  -10.090708|   -9.701532|  -10.327818|  -10.270221|    0.007468|   -0.041610|    0.069807|   -0.680237|
|        4050|  -10.092697|   -9.709020|  -10.334361|  -10.277474|    0.007468|   -0.041605|    0.069808|   -0.680211|
|        4075|  -10.094676|   -9.716554|  -10.340887|  -10.284636|    0.007468|   -0.041600|    0.069809|   -0.680582|
|        4100|  -10.096658|   -9.724103|  -10.347311|  -10.291612|    0.007468|   -0.041596|    0.069810|   -0.681021|
+-----------------------------------------------------------------------+
|        File Writing Summary       |              Filename             |
+-----------------------------------------------------------------------+
|SU2 binary restart                 |restart.dat                        |
|Paraview                           |vol_solution.vtu                   |
|Paraview surface                   |surface.vtu                        |
+-----------------------------------------------------------------------+
+--------------------------------------------------------------------------------------------------------------------+
|  Inner_Iter|    rms[Rho]|   rms[RhoU]|   rms[RhoV]|   rms[RhoE]|          CD|          CL|         CMz|   LinSolRes|
+--------------------------------------------------------------------------------------------------------------------+
|        4125|  -10.098636|   -9.731642|  -10.353652|  -10.298586|    0.007468|   -0.041591|    0.069812|   -0.681163|
|        4150|  -10.100638|   -9.739180|  -10.359944|  -10.305778|    0.007469|   -0.041587|    0.069813|   -0.680886|
|        4175|  -10.102664|   -9.746708|  -10.366299|  -10.313173|    0.007469|   -0.041583|    0.069814|   -0.680320|
|        4200|  -10.104684|   -9.754231|  -10.372730|  -10.320618|    0.007469|   -0.041579|    0.069815|   -0.679806|
+-----------------------------------------------------------------------+
|        File Writing Summary       |              Filename             |
+-----------------------------------------------------------------------+
|SU2 binary restart                 |restart.dat                        |
|Paraview                           |vol_solution.vtu                   |
|Paraview surface                   |surface.vtu                        |
+-----------------------------------------------------------------------+
+--------------------------------------------------------------------------------------------------------------------+
|  Inner_Iter|    rms[Rho]|   rms[RhoU]|   rms[RhoV]|   rms[RhoE]|          CD|          CL|         CMz|   LinSolRes|
+--------------------------------------------------------------------------------------------------------------------+
|        4225|  -10.106711|   -9.761757|  -10.379167|  -10.327926|    0.007469|   -0.041574|    0.069817|   -0.679637|
|        4250|  -10.108730|   -9.769295|  -10.385619|  -10.334993|    0.007469|   -0.041570|    0.069818|   -0.679899|
|        4275|  -10.110737|   -9.776843|  -10.392094|  -10.341897|    0.007469|   -0.041566|    0.069819|   -0.680440|
|        4300|  -10.112762|   -9.784393|  -10.398606|  -10.348856|    0.007469|   -0.041562|    0.069820|   -0.680925|
+-----------------------------------------------------------------------+
|        File Writing Summary       |              Filename             |
+-----------------------------------------------------------------------+
|SU2 binary restart                 |restart.dat                        |
|Paraview                           |vol_solution.vtu                   |
|Paraview surface                   |surface.vtu                        |
+-----------------------------------------------------------------------+
+--------------------------------------------------------------------------------------------------------------------+
|  Inner_Iter|    rms[Rho]|   rms[RhoU]|   rms[RhoV]|   rms[RhoE]|          CD|          CL|         CMz|   LinSolRes|
+--------------------------------------------------------------------------------------------------------------------+
|        4325|  -10.114804|   -9.791940|  -10.405186|  -10.356014|    0.007469|   -0.041558|    0.069821|   -0.681068|
|        4350|  -10.116859|   -9.799492|  -10.411810|  -10.363354|    0.007469|   -0.041555|    0.069822|   -0.680862|
|        4375|  -10.118927|   -9.807046|  -10.418459|  -10.370766|    0.007469|   -0.041551|    0.069823|   -0.680581|
|        4400|  -10.120995|   -9.814606|  -10.425111|  -10.378139|    0.007469|   -0.041547|    0.069824|   -0.680541|
+-----------------------------------------------------------------------+
|        File Writing Summary       |              Filename             |
+-----------------------------------------------------------------------+
|SU2 binary restart                 |restart.dat                        |
|Paraview                           |vol_solution.vtu                   |
|Paraview surface                   |surface.vtu                        |
+-----------------------------------------------------------------------+
+--------------------------------------------------------------------------------------------------------------------+
|  Inner_Iter|    rms[Rho]|   rms[RhoU]|   rms[RhoV]|   rms[RhoE]|          CD|          CL|         CMz|   LinSolRes|
+--------------------------------------------------------------------------------------------------------------------+
|        4425|  -10.123060|   -9.822180|  -10.431718|  -10.385368|    0.007469|   -0.041543|    0.069825|   -0.680941|
|        4450|  -10.125124|   -9.829762|  -10.438285|  -10.392414|    0.007469|   -0.041540|    0.069826|   -0.681693|
|        4475|  -10.127187|   -9.837341|  -10.444860|  -10.399385|    0.007469|   -0.041536|    0.069827|   -0.682444|
|        4500|  -10.129267|   -9.844919|  -10.451488|  -10.406505|    0.007469|   -0.041533|    0.069828|   -0.682822|
+-----------------------------------------------------------------------+
|        File Writing Summary       |              Filename             |
+-----------------------------------------------------------------------+
|SU2 binary restart                 |restart.dat                        |
|Paraview                           |vol_solution.vtu                   |
|Paraview surface                   |surface.vtu                        |
+-----------------------------------------------------------------------+
+--------------------------------------------------------------------------------------------------------------------+
|  Inner_Iter|    rms[Rho]|   rms[RhoU]|   rms[RhoV]|   rms[RhoE]|          CD|          CL|         CMz|   LinSolRes|
+--------------------------------------------------------------------------------------------------------------------+
|        4525|  -10.131370|   -9.852505|  -10.458207|  -10.413932|    0.007469|   -0.041529|    0.069829|   -0.682771|
|        4550|  -10.133483|   -9.860096|  -10.465007|  -10.421552|    0.007469|   -0.041526|    0.069830|   -0.682591|
|        4575|  -10.135599|   -9.867697|  -10.471833|  -10.429099|    0.007469|   -0.041522|    0.069831|   -0.682684|
|        4600|  -10.137712|   -9.875310|  -10.478651|  -10.436367|    0.007469|   -0.041519|    0.069832|   -0.683263|
+-----------------------------------------------------------------------+
|        File Writing Summary       |              Filename             |
+-----------------------------------------------------------------------+
|SU2 binary restart                 |restart.dat                        |
|Paraview                           |vol_solution.vtu                   |
|Paraview surface                   |surface.vtu                        |
+-----------------------------------------------------------------------+
+--------------------------------------------------------------------------------------------------------------------+
|  Inner_Iter|    rms[Rho]|   rms[RhoU]|   rms[RhoV]|   rms[RhoE]|          CD|          CL|         CMz|   LinSolRes|
+--------------------------------------------------------------------------------------------------------------------+
|        4625|  -10.139818|   -9.882932|  -10.485469|  -10.443403|    0.007469|   -0.041516|    0.069833|   -0.684206|
|        4650|  -10.141928|   -9.890556|  -10.492321|  -10.450436|    0.007469|   -0.041513|    0.069834|   -0.685155|
|        4675|  -10.144055|   -9.898177|  -10.499234|  -10.457666|    0.007469|   -0.041510|    0.069835|   -0.685775|
|        4700|  -10.146197|   -9.905799|  -10.506210|  -10.465119|    0.007469|   -0.041507|    0.069836|   -0.686013|
+-----------------------------------------------------------------------+
|        File Writing Summary       |              Filename             |
+-----------------------------------------------------------------------+
|SU2 binary restart                 |restart.dat                        |
|Paraview                           |vol_solution.vtu                   |
|Paraview surface                   |surface.vtu                        |
+-----------------------------------------------------------------------+
+--------------------------------------------------------------------------------------------------------------------+
|  Inner_Iter|    rms[Rho]|   rms[RhoU]|   rms[RhoV]|   rms[RhoE]|          CD|          CL|         CMz|   LinSolRes|
+--------------------------------------------------------------------------------------------------------------------+
|        4725|  -10.148349|   -9.913435|  -10.513210|  -10.472690|    0.007469|   -0.041503|    0.069837|   -0.686128|
|        4750|  -10.150505|   -9.921101|  -10.520174|  -10.480221|    0.007469|   -0.041501|    0.069837|   -0.686485|
|        4775|  -10.152659|   -9.928785|  -10.527090|  -10.487568|    0.007469|   -0.041498|    0.069838|   -0.687306|
|        4800|  -10.154812|   -9.936472|  -10.533998|  -10.494729|    0.007469|   -0.041495|    0.069839|   -0.688500|
+-----------------------------------------------------------------------+
|        File Writing Summary       |              Filename             |
+-----------------------------------------------------------------------+
|SU2 binary restart                 |restart.dat                        |
|Paraview                           |vol_solution.vtu                   |
|Paraview surface                   |surface.vtu                        |
+-----------------------------------------------------------------------+
+--------------------------------------------------------------------------------------------------------------------+
|  Inner_Iter|    rms[Rho]|   rms[RhoU]|   rms[RhoV]|   rms[RhoE]|          CD|          CL|         CMz|   LinSolRes|
+--------------------------------------------------------------------------------------------------------------------+
|        4825|  -10.156970|   -9.944162|  -10.540952|  -10.501855|    0.007469|   -0.041492|    0.069840|   -0.689677|
|        4850|  -10.159141|   -9.951856|  -10.547992|  -10.509170|    0.007469|   -0.041489|    0.069841|   -0.690453|
|        4875|  -10.161330|   -9.959554|  -10.555138|  -10.516805|    0.007469|   -0.041486|    0.069841|   -0.690813|
|        4900|  -10.163530|   -9.967262|  -10.562358|  -10.524624|    0.007469|   -0.041484|    0.069842|   -0.691110|
+-----------------------------------------------------------------------+
|        File Writing Summary       |              Filename             |
+-----------------------------------------------------------------------+
|SU2 binary restart                 |restart.dat                        |
|Paraview                           |vol_solution.vtu                   |
|Paraview surface                   |surface.vtu                        |
+-----------------------------------------------------------------------+
+--------------------------------------------------------------------------------------------------------------------+
|  Inner_Iter|    rms[Rho]|   rms[RhoU]|   rms[RhoV]|   rms[RhoE]|          CD|          CL|         CMz|   LinSolRes|
+--------------------------------------------------------------------------------------------------------------------+
|        4925|  -10.165729|   -9.974984|  -10.569578|  -10.532308|    0.007469|   -0.041481|    0.069843|   -0.691743|
|        4950|  -10.167924|   -9.982723|  -10.576748|  -10.539668|    0.007469|   -0.041478|    0.069844|   -0.692861|
|        4975|  -10.170118|   -9.990474|  -10.583887|  -10.546831|    0.007469|   -0.041476|    0.069844|   -0.694302|
|        5000|  -10.172321|   -9.998234|  -10.591060|  -10.554069|    0.007469|   -0.041473|    0.069845|   -0.695676|
+-----------------------------------------------------------------------+
|        File Writing Summary       |              Filename             |
+-----------------------------------------------------------------------+
|SU2 binary restart                 |restart.dat                        |
|Paraview                           |vol_solution.vtu                   |
|Paraview surface                   |surface.vtu                        |
+-----------------------------------------------------------------------+
+--------------------------------------------------------------------------------------------------------------------+
|  Inner_Iter|    rms[Rho]|   rms[RhoU]|   rms[RhoV]|   rms[RhoE]|          CD|          CL|         CMz|   LinSolRes|
+--------------------------------------------------------------------------------------------------------------------+
|        5025|  -10.174533|  -10.005993|  -10.598298|  -10.561509|    0.007469|   -0.041471|    0.069846|   -0.696645|
|        5050|  -10.176760|  -10.013755|  -10.605599|  -10.569160|    0.007469|   -0.041468|    0.069846|   -0.697267|
|        5075|  -10.178994|  -10.021526|  -10.612949|  -10.576904|    0.007469|   -0.041466|    0.069847|   -0.697859|
|        5100|  -10.179360|  -10.029175|  -10.607762|  -10.518743|    0.007469|   -0.041464|    0.069848|   -0.663695|
+-----------------------------------------------------------------------+
|        File Writing Summary       |              Filename             |
+-----------------------------------------------------------------------+
|SU2 binary restart                 |restart.dat                        |
|Paraview                           |vol_solution.vtu                   |
|Paraview surface                   |surface.vtu                        |
+-----------------------------------------------------------------------+
+--------------------------------------------------------------------------------------------------------------------+
|  Inner_Iter|    rms[Rho]|   rms[RhoU]|   rms[RhoV]|   rms[RhoE]|          CD|          CL|         CMz|   LinSolRes|
+--------------------------------------------------------------------------------------------------------------------+
|        5125|  -10.184025|  -10.037928|  -10.628856|  -10.592842|    0.007469|   -0.041461|    0.069848|   -0.701093|
|        5150|  -10.185679|  -10.045842|  -10.637530|  -10.599240|    0.007469|   -0.041459|    0.069849|   -0.703012|
|        5175|  -10.188160|  -10.053542|  -10.643666|  -10.607659|    0.007469|   -0.041457|    0.069850|   -0.703831|
|        5200|  -10.189903|  -10.061505|  -10.648505|  -10.588651|    0.007469|   -0.041454|    0.069850|   -0.761967|
+-----------------------------------------------------------------------+
|        File Writing Summary       |              Filename             |
+-----------------------------------------------------------------------+
|SU2 binary restart                 |restart.dat                        |
|Paraview                           |vol_solution.vtu                   |
|Paraview surface                   |surface.vtu                        |
+-----------------------------------------------------------------------+
+--------------------------------------------------------------------------------------------------------------------+
|  Inner_Iter|    rms[Rho]|   rms[RhoU]|   rms[RhoV]|   rms[RhoE]|          CD|          CL|         CMz|   LinSolRes|
+--------------------------------------------------------------------------------------------------------------------+
|        5225|  -10.193606|  -10.069795|  -10.660232|  -10.649904|    0.007469|   -0.041452|    0.069851|   -0.584359|
|        5250|  -10.195226|  -10.077836|  -10.666465|  -10.629594|    0.007469|   -0.041450|    0.069851|   -0.707599|
|        5275|  -10.197318|  -10.085792|  -10.672971|  -10.638446|    0.007469|   -0.041448|    0.069852|   -0.708890|
|        5300|  -10.200441|  -10.093813|  -10.680761|  -10.672367|    0.007469|   -0.041446|    0.069852|   -0.697707|
+-----------------------------------------------------------------------+
|        File Writing Summary       |              Filename             |
+-----------------------------------------------------------------------+
|SU2 binary restart                 |restart.dat                        |
|Paraview                           |vol_solution.vtu                   |
|Paraview surface                   |surface.vtu                        |
+-----------------------------------------------------------------------+
+--------------------------------------------------------------------------------------------------------------------+
|  Inner_Iter|    rms[Rho]|   rms[RhoU]|   rms[RhoV]|   rms[RhoE]|          CD|          CL|         CMz|   LinSolRes|
+--------------------------------------------------------------------------------------------------------------------+
|        5325|  -10.200573|  -10.101286|  -10.675131|  -10.586301|    0.007469|   -0.041444|    0.069853|   -0.674587|
|        5350|  -10.204605|  -10.109844|  -10.696902|  -10.661698|    0.007469|   -0.041442|    0.069854|   -0.712117|
|        5375|  -10.206626|  -10.117986|  -10.703703|  -10.669271|    0.007469|   -0.041440|    0.069854|   -0.714078|
|        5400|  -10.207732|  -10.125621|  -10.698195|  -10.612166|    0.007469|   -0.041438|    0.069855|   -0.679410|
+-----------------------------------------------------------------------+
|        File Writing Summary       |              Filename             |
+-----------------------------------------------------------------------+
|SU2 binary restart                 |restart.dat                        |
|Paraview                           |vol_solution.vtu                   |
|Paraview surface                   |surface.vtu                        |
+-----------------------------------------------------------------------+
+--------------------------------------------------------------------------------------------------------------------+
|  Inner_Iter|    rms[Rho]|   rms[RhoU]|   rms[RhoV]|   rms[RhoE]|          CD|          CL|         CMz|   LinSolRes|
+--------------------------------------------------------------------------------------------------------------------+
|        5425|  -10.210912|  -10.134214|  -10.716328|  -10.656545|    0.007469|   -0.041436|    0.069855|   -0.777529|
|        5450|  -10.214039|  -10.142189|  -10.728235|  -10.694003|    0.007469|   -0.041434|    0.069856|   -0.718705|
|        5475|  -10.216116|  -10.150348|  -10.735679|  -10.701208|    0.007469|   -0.041432|    0.069856|   -0.719950|
|        5500|  -10.218578|  -10.158412|  -10.742725|  -10.709329|    0.007469|   -0.041431|    0.069857|   -0.722223|
+-----------------------------------------------------------------------+
|        File Writing Summary       |              Filename             |
+-----------------------------------------------------------------------+
|SU2 binary restart                 |restart.dat                        |
|Paraview                           |vol_solution.vtu                   |
|Paraview surface                   |surface.vtu                        |
+-----------------------------------------------------------------------+
+--------------------------------------------------------------------------------------------------------------------+
|  Inner_Iter|    rms[Rho]|   rms[RhoU]|   rms[RhoV]|   rms[RhoE]|          CD|          CL|         CMz|   LinSolRes|
+--------------------------------------------------------------------------------------------------------------------+
|        5525|  -10.221581|  -10.166554|  -10.751720|  -10.743162|    0.007469|   -0.041429|    0.069857|   -0.601888|
|        5550|  -10.223497|  -10.174743|  -10.759577|  -10.722259|    0.007469|   -0.041427|    0.069857|   -0.725960|
|        5575|  -10.225656|  -10.182967|  -10.767560|  -10.731981|    0.007469|   -0.041425|    0.069858|   -0.727970|
|        5600|  -10.228131|  -10.191060|  -10.774659|  -10.740806|    0.007469|   -0.041424|    0.069858|   -0.729476|
+-----------------------------------------------------------------------+
|        File Writing Summary       |              Filename             |
+-----------------------------------------------------------------------+
|SU2 binary restart                 |restart.dat                        |
|Paraview                           |vol_solution.vtu                   |
|Paraview surface                   |surface.vtu                        |
+-----------------------------------------------------------------------+
+--------------------------------------------------------------------------------------------------------------------+
|  Inner_Iter|    rms[Rho]|   rms[RhoU]|   rms[RhoV]|   rms[RhoE]|          CD|          CL|         CMz|   LinSolRes|
+--------------------------------------------------------------------------------------------------------------------+
|        5625|  -10.228466|  -10.198660|  -10.766246|  -10.646593|    0.007469|   -0.041422|    0.069859|   -0.731136|
|        5650|  -10.233244|  -10.207338|  -10.791398|  -10.756429|    0.007469|   -0.041421|    0.069859|   -0.734610|
|        5675|  -10.235270|  -10.215585|  -10.800356|  -10.763918|    0.007469|   -0.041419|    0.069860|   -0.734826|
|        5700|  -10.237642|  -10.223797|  -10.806890|  -10.771983|    0.007469|   -0.041418|    0.069860|   -0.737863|
+-----------------------------------------------------------------------+
|        File Writing Summary       |              Filename             |
+-----------------------------------------------------------------------+
|SU2 binary restart                 |restart.dat                        |
|Paraview                           |vol_solution.vtu                   |
|Paraview surface                   |surface.vtu                        |
+-----------------------------------------------------------------------+
+--------------------------------------------------------------------------------------------------------------------+
|  Inner_Iter|    rms[Rho]|   rms[RhoU]|   rms[RhoV]|   rms[RhoE]|          CD|          CL|         CMz|   LinSolRes|
+--------------------------------------------------------------------------------------------------------------------+
|        5725|  -10.240200|  -10.231213|  -10.808257|  -10.760034|    0.007469|   -0.041416|    0.069860|   -0.680509|
|        5750|  -10.241913|  -10.239453|  -10.820064|  -10.754280|    0.007469|   -0.041415|    0.069861|   -0.706616|
|        5775|  -10.244631|  -10.246932|  -10.824655|  -10.771333|    0.007469|   -0.041413|    0.069861|   -0.684401|
|        5800|  -10.246742|  -10.255656|  -10.836399|  -10.768954|    0.007469|   -0.041412|    0.069861|   -0.711704|
+-----------------------------------------------------------------------+
|        File Writing Summary       |              Filename             |
+-----------------------------------------------------------------------+
|SU2 binary restart                 |restart.dat                        |
|Paraview                           |vol_solution.vtu                   |
|Paraview surface                   |surface.vtu                        |
+-----------------------------------------------------------------------+
+--------------------------------------------------------------------------------------------------------------------+
|  Inner_Iter|    rms[Rho]|   rms[RhoU]|   rms[RhoV]|   rms[RhoE]|          CD|          CL|         CMz|   LinSolRes|
+--------------------------------------------------------------------------------------------------------------------+
|        5825|  -10.249499|  -10.263240|  -10.841850|  -10.789991|    0.007469|   -0.041411|    0.069862|   -0.688970|
|        5850|  -10.251358|  -10.271462|  -10.853767|  -10.784278|    0.007469|   -0.041409|    0.069862|   -0.716988|
|        5875|  -10.254244|  -10.278529|  -10.858044|  -10.804070|    0.007469|   -0.041408|    0.069862|   -0.693106|
|        5900|  -10.256177|  -10.287468|  -10.869302|  -10.799957|    0.007469|   -0.041407|    0.069863|   -0.719310|
+-----------------------------------------------------------------------+
|        File Writing Summary       |              Filename             |
+-----------------------------------------------------------------------+
|SU2 binary restart                 |restart.dat                        |
|Paraview                           |vol_solution.vtu                   |
|Paraview surface                   |surface.vtu                        |
+-----------------------------------------------------------------------+
+--------------------------------------------------------------------------------------------------------------------+
|  Inner_Iter|    rms[Rho]|   rms[RhoU]|   rms[RhoV]|   rms[RhoE]|          CD|          CL|         CMz|   LinSolRes|
+--------------------------------------------------------------------------------------------------------------------+
|        5925|  -10.258969|  -10.295482|  -10.872041|  -10.819676|    0.007469|   -0.041405|    0.069863|   -0.697327|
|        5950|  -10.260934|  -10.304129|  -10.883307|  -10.813672|    0.007469|   -0.041404|    0.069863|   -0.726176|
|        5975|  -10.263722|  -10.311342|  -10.887317|  -10.834915|    0.007469|   -0.041403|    0.069864|   -0.701759|
|        6000|  -10.265758|  -10.320023|  -10.899072|  -10.830227|    0.007469|   -0.041402|    0.069864|   -0.727766|
+-----------------------------------------------------------------------+
|        File Writing Summary       |              Filename             |
+-----------------------------------------------------------------------+
|SU2 binary restart                 |restart.dat                        |
|Paraview                           |vol_solution.vtu                   |
|Paraview surface                   |surface.vtu                        |
+-----------------------------------------------------------------------+
+--------------------------------------------------------------------------------------------------------------------+
|  Inner_Iter|    rms[Rho]|   rms[RhoU]|   rms[RhoV]|   rms[RhoE]|          CD|          CL|         CMz|   LinSolRes|
+--------------------------------------------------------------------------------------------------------------------+
|        6025|  -10.268542|  -10.327640|  -10.903416|  -10.849499|    0.007469|   -0.041401|    0.069864|   -0.706189|
|        6050|  -10.270524|  -10.336284|  -10.916012|  -10.845102|    0.007469|   -0.041400|    0.069865|   -0.735234|
|        6075|  -10.273379|  -10.343764|  -10.920472|  -10.865991|    0.007469|   -0.041398|    0.069865|   -0.711187|
|        6100|  -10.275415|  -10.352590|  -10.932688|  -10.861283|    0.007469|   -0.041397|    0.069865|   -0.739170|
+-----------------------------------------------------------------------+
|        File Writing Summary       |              Filename             |
+-----------------------------------------------------------------------+
|SU2 binary restart                 |restart.dat                        |
|Paraview                           |vol_solution.vtu                   |
|Paraview surface                   |surface.vtu                        |
+-----------------------------------------------------------------------+
+--------------------------------------------------------------------------------------------------------------------+
|  Inner_Iter|    rms[Rho]|   rms[RhoU]|   rms[RhoV]|   rms[RhoE]|          CD|          CL|         CMz|   LinSolRes|
+--------------------------------------------------------------------------------------------------------------------+
|        6125|  -10.278197|  -10.360262|  -10.936947|  -10.881483|    0.007469|   -0.041396|    0.069865|   -0.716939|
|        6150|  -10.280263|  -10.368928|  -10.949153|  -10.876334|    0.007469|   -0.041395|    0.069866|   -0.743893|
|        6164|  -10.281636|  -10.373466|  -10.953773|  -10.880836|    0.007469|   -0.041395|    0.069866|   -0.744780|

----------------------------- Solver Exit -------------------------------
All convergence criteria satisfied.
+-----------------------------------------------------------------------+
|      Convergence Field     |     Value    |   Criterion  |  Converged |
+-----------------------------------------------------------------------+
|                  Cauchy[CL]|   4.99735e-07|       < 5e-07|         Yes|
+-----------------------------------------------------------------------+
-------------------------------------------------------------------------
+-----------------------------------------------------------------------+
|        File Writing Summary       |              Filename             |
+-----------------------------------------------------------------------+
|SU2 binary restart                 |restart.dat                        |
|Paraview                           |vol_solution.vtu                   |
|Paraview surface                   |surface.vtu                        |
+-----------------------------------------------------------------------+

------------------------- Solver Postprocessing -------------------------
Deleted CNumerics container.
Deleted CIntegration container.
Deleted CSolver container.
Deleted CIteration container.
Deleted CInterface container.
Deleted CGeometry container.
Deleted CFreeFormDefBox class.
Deleted CSurfaceMovement class.
Deleted CVolumetricMovement class.
Deleted CConfig container.
Deleted nInst container.
Deleted COutput class.
-------------------------------------------------------------------------

------------------------- Exit Success (SU2_CFD) ------------------------

