WARNING: The current SST-1994m model is inconsistent with literature. We recommend using the SST-2003m model.
In SU2 v8 the 2003m model will become default, and the inconsistency will be fixed.

-------------------------------------------------------------------------
|    ___ _   _ ___                                                      |
|   / __| | | |_  )   Release 7.4.0 "Blackbird"                         |
|   \__ \ |_| |/ /                                                      |
|   |___/\___//___|   Suite (Computational Fluid Dynamics Code)         |
|                                                                       |
-------------------------------------------------------------------------
| SU2 Project Website: https://su2code.github.io                        |
|                                                                       |
| The SU2 Project is maintained by the SU2 Foundation                   |
| (http://su2foundation.org)                                            |
-------------------------------------------------------------------------
| Copyright 2012-2022, SU2 Contributors                                 |
|                                                                       |
| SU2 is free software; you can redistribute it and/or                  |
| modify it under the terms of the GNU Lesser General Public            |
| License as published by the Free Software Foundation; either          |
| version 2.1 of the License, or (at your option) any later version.    |
|                                                                       |
| SU2 is distributed in the hope that it will be useful,                |
| but WITHOUT ANY WARRANTY; without even the implied warranty of        |
| MERCHANTABILITY or FITNESS FOR A PARTICULAR PURPOSE. See the GNU      |
| Lesser General Public License for more details.                       |
|                                                                       |
| You should have received a copy of the GNU Lesser General Public      |
| License along with SU2. If not, see <http://www.gnu.org/licenses/>.   |
-------------------------------------------------------------------------
WARNING: The current SST-1994m model is inconsistent with literature. We recommend using the SST-2003m model.
In SU2 v8 the 2003m model will become default, and the inconsistency will be fixed.

Parsing config file for zone 0
WARNING: The current SST-1994m model is inconsistent with literature. We recommend using the SST-2003m model.
In SU2 v8 the 2003m model will become default, and the inconsistency will be fixed.

----------------- Physical Case Definition ( Zone 0 ) -------------------
Compressible RANS equations.
Turbulence model: Menter's k-omega SST-1994m with no production modification.
Hybrid RANS/LES: No Hybrid RANS/LES
Mach number: 0.21.
Angle of attack (AoA): -3 deg, and angle of sideslip (AoS): 0 deg.
Reynolds number: 1.28186e+07. Reference length 2.62.
Reading and writing binary SU2 native restart files.
Read flow solution from: solution_flow.
Non-Dimensional simulation (V=Mach, Rho=1.0, T=1.0 at the farfield).
The reference area is 2.62 m^2.
The semi-span will be computed using the max y(3D) value.
The reference length is 2.62 m.
Reference origin for moment evaluation is (0, 0, 0).
Surface(s) where the force coefficients are evaluated: wall.

Surface(s) plotted in the output file: wall.
Input mesh file name: su2meshEx.su2

--------------- Space Numerical Integration ( Zone 0 ) ------------------
Roe (with entropy fix = 1e-05) solver for the flow inviscid terms.
Standard Roe without low-dissipation function.
Second order integration in space, with slope limiter.
Van Albada slope-limiting method implemented by edges.
Scalar upwind solver for the turbulence model.
First order integration in space.
Average of gradients with correction (viscous flow terms).
Average of gradients with correction (viscous turbulence terms).
Gradient for upwind reconstruction: Green-Gauss.
Gradient for viscous and source terms: Green-Gauss.

--------------- Time Numerical Integration  ( Zone 0 ) ------------------
Local time stepping (steady state simulation).
Euler implicit method for the flow equations.
FGMRES is used for solving the linear system.
Using a ILU(0) preconditioning.
Convergence criteria of the linear solver: 0.2.
Max number of linear iterations: 4.
CFL adaptation. Factor down: 0.1, factor up: 1.2,
                lower limit: 25, upper limit: 1000,
                acceptable linear residual: 0.001.
Courant-Friedrichs-Lewy number:       25
Euler implicit time integration for the turbulence model.

------------------ Convergence Criteria  ( Zone 0 ) ---------------------
Maximum number of solver subiterations: 25000.
Begin convergence monitoring at iteration 10.
Residual minimum value: 1e-11.5.
Cauchy series min. value: 5e-07.
Number of Cauchy elements: 500.
Begin windowed time average at iteration 0.

-------------------- Output Information ( Zone 0 ) ----------------------
File writing frequency: 
+------------------------------------+
|                     File| Frequency|
+------------------------------------+
|                  RESTART|       100|
|                 PARAVIEW|       100|
|         SURFACE_PARAVIEW|       100|
+------------------------------------+
Writing the convergence history file every 1 inner iterations.
Writing the screen convergence history every 25 inner iterations.
The tabular file format is CSV (.csv).
Convergence history file name: history.
Forces breakdown file name: forces_breakdown.dat.
Surface file name: surface.
Volume file name: vol_solution.
Restart file name: restart.dat.

------------- Config File Boundary Information ( Zone 0 ) ---------------
+-----------------------------------------------------------------------+
|                        Marker Type|                        Marker Name|
+-----------------------------------------------------------------------+
|                          Far-field|                          far-field|
+-----------------------------------------------------------------------+
|                     Heat flux wall|                               wall|
+-----------------------------------------------------------------------+

-------------------- Output Preprocessing ( Zone 0 ) --------------------

WARNING: SURFACE_PRESSURE_DROP can only be computed for at least 2 surfaces (outlet, inlet, ...)

  Info: Ignoring the following screen output fields:
  RMS_NU_TILDE
Screen output fields: INNER_ITER, RMS_DENSITY, RMS_MOMENTUM-X, RMS_MOMENTUM-Y, RMS_ENERGY, DRAG, LIFT, MOMENT_Z, LINSOL_RESIDUAL
History output group(s): ITER, RMS_RES, AERO_COEFF
Convergence field(s): LIFT
Warning: No (valid) fields chosen for time convergence monitoring. Time convergence monitoring inactive.
Volume output fields: COORDINATES, SOLUTION, PRIMITIVE

------------------- Geometry Preprocessing ( Zone 0 ) -------------------
Two dimensional problem.
66015 grid points before partitioning.
65610 volume elements before partitioning.
2 surface markers.
405 boundary elements in index 0 (Marker = far-field).
405 boundary elements in index 1 (Marker = wall).
Executing the partitioning functions.
Building the graph adjacency structure.
Calling ParMETIS... graph partitioning complete (888 edge cuts).
Distributing ParMETIS coloring.
Rebalancing vertices.
Rebalancing volume element connectivity.
Rebalancing markers and surface elements.
67791 vertices including ghost points. 
66494 interior elements including halo cells. 
66494 quadrilaterals.
Establishing MPI communication patterns.
Setting point connectivity.
Renumbering points (Reverse Cuthill McKee Ordering).
Recomputing point connectivity.
Setting element connectivity.
Checking the numerical grid orientation.
All volume elements are correctly orientend.
All surface elements are correctly orientend.
Identifying edges and vertices.
Setting the control volume structure.
Area of the computational grid: 177681.
Searching for the closest normal neighbors to the surfaces.
Storing a mapping from global to local point index.
Compute the surface curvature.
Max K: 1084.38. Mean K: 3.59037. Standard deviation K: 49.7608.
Checking for periodicity.
Computing mesh quality statistics for the dual control volumes.
+--------------------------------------------------------------+
|           Mesh Quality Metric|        Minimum|        Maximum|
+--------------------------------------------------------------+
|    Orthogonality Angle (deg.)|         82.757|             90|
|     CV Face Area Aspect Ratio|        1.00372|        11629.9|
|           CV Sub-Volume Ratio|              1|        2.23945|
+--------------------------------------------------------------+
Finding max control volume width.
Communicating number of neighbors.
Wetted area = 5.32649 m.
Area projection in the x-plane = 0.29702 m, y-plane = 2.61984 m.
Max. coordinate in the x-direction = 2.62 m, y-direction = 0.165086 m.
Min. coordinate in the x-direction = 0 m, y-direction = -0.119236 m.
Computing wall distances.

-------------------- Solver Preprocessing ( Zone 0 ) --------------------
Viscous flow: Computing pressure using the ideal gas law
based on the free-stream temperature and a density computed
from the Reynolds number.
Force coefficients computed using free-stream values.

-- Models:
+------------------------------------------------------------------------------+
|          Viscosity Model|        Conductivity Model|              Fluid Model|
+------------------------------------------------------------------------------+
|               SUTHERLAND|          CONSTANT_PRANDTL|             STANDARD_AIR|
+------------------------------------------------------------------------------+
-- Fluid properties:
+------------------------------------------------------------------------------+
|                  Name|    Dim. value|    Ref. value|      Unit|Non-dim. value|
+------------------------------------------------------------------------------+
|        Ref. Viscosity|     1.716e-05|       416.883|   N.s/m^2|   4.11626e-08|
|      Sutherland Temp.|        273.15|        288.16|         K|      0.947911|
|     Sutherland Const.|         110.4|        288.16|         K|       0.38312|
+------------------------------------------------------------------------------+
|        Prandtl (Lam.)|             -|             -|         -|          0.72|
|       Prandtl (Turb.)|             -|             -|         -|           0.9|
+------------------------------------------------------------------------------+
|          Gas Constant|       287.058|       401.881|  N.m/kg.K|      0.714286|
|      Spec. Heat Ratio|             -|             -|         -|           1.4|
+------------------------------------------------------------------------------+
-- Initial and free-stream conditions:
+------------------------------------------------------------------------------+
|                  Name|    Dim. value|    Ref. value|      Unit|Non-dim. value|
+------------------------------------------------------------------------------+
|       Static Pressure|        101333|        141867|        Pa|      0.714286|
|               Density|       1.22504|       1.22504|    kg/m^3|             1|
|           Temperature|        288.16|        288.16|         K|             1|
|          Total Energy|        209369|        115806|   m^2/s^2|       1.80793|
|            Velocity-X|       71.3657|       340.303|       m/s|      0.209712|
|            Velocity-Y|      -3.74012|       340.303|       m/s|    -0.0109906|
|    Velocity Magnitude|       71.4636|       340.303|       m/s|          0.21|
+------------------------------------------------------------------------------+
|             Viscosity|   1.78935e-05|       416.883|   N.s/m^2|    4.2922e-08|
|          Conductivity|             -|        167537|   W/m^2.K|             -|
|     Turb. Kin. Energy|       19.1514|        115806|   m^2/s^2|   0.000165375|
|     Spec. Dissipation|        131116|       340.303|       1/s|       385.292|
+------------------------------------------------------------------------------+
|           Mach Number|             -|             -|         -|          0.21|
|       Reynolds Number|             -|             -|         -|   1.28186e+07|
+------------------------------------------------------------------------------+
Initialize Jacobian structure (Navier-Stokes). MG level: 0.
Initialize Jacobian structure (SST model).

------------------- Numerics Preprocessing ( Zone 0 ) -------------------

----------------- Integration Preprocessing ( Zone 0 ) ------------------

------------------- Iteration Preprocessing ( Zone 0 ) ------------------
Euler/Navier-Stokes/RANS fluid iteration.

------------------------------ Begin Solver -----------------------------

Simulation Run using the Single-zone Driver
WARNING: SU2 was not compiled for an AVX-capable architecture.
+--------------------------------------------------------------------------------------------------------------------+
|  Inner_Iter|    rms[Rho]|   rms[RhoU]|   rms[RhoV]|   rms[RhoE]|          CD|          CL|         CMz|   LinSolRes|
+--------------------------------------------------------------------------------------------------------------------+
|           0|   -3.420381|   -3.726996|   -3.447429|   -3.016579|    0.005098|   -0.159970|    0.037576|   -0.799139|
|          25|   -5.245405|   -4.877045|   -4.767273|   -4.849418|    0.001065|   -0.088676|    0.072766|   -0.665853|
|          50|   -5.854793|   -4.958684|   -5.086028|   -5.340160|    0.003529|   -0.103098|    0.056263|   -0.824496|
|          75|   -6.032088|   -5.092824|   -5.505629|   -5.540295|    0.003629|    0.001552|    0.085461|   -0.688127|
|         100|   -6.291411|   -5.248730|   -5.815788|   -5.721220|    0.008249|   -0.025077|    0.068755|   -0.696014|
+-----------------------------------------------------------------------+
|        File Writing Summary       |              Filename             |
+-----------------------------------------------------------------------+
|SU2 binary restart                 |restart.dat                        |
|Paraview                           |vol_solution.vtu                   |
|Paraview surface                   |surface.vtu                        |
+-----------------------------------------------------------------------+
+--------------------------------------------------------------------------------------------------------------------+
|  Inner_Iter|    rms[Rho]|   rms[RhoU]|   rms[RhoV]|   rms[RhoE]|          CD|          CL|         CMz|   LinSolRes|
+--------------------------------------------------------------------------------------------------------------------+
|         125|   -6.421939|   -5.453465|   -5.991949|   -5.916282|    0.008653|   -0.067795|    0.059295|   -0.688023|
|         150|   -6.707437|   -5.744203|   -6.360707|   -6.177378|    0.007364|   -0.060286|    0.063550|   -0.637203|
|         175|   -7.018258|   -6.032720|   -6.525047|   -6.494922|    0.007194|   -0.047050|    0.067709|   -0.746717|
|         200|   -7.344310|   -6.343960|   -6.896686|   -6.838261|    0.007528|   -0.042627|    0.068654|   -0.664630|
+-----------------------------------------------------------------------+
|        File Writing Summary       |              Filename             |
+-----------------------------------------------------------------------+
|SU2 binary restart                 |restart.dat                        |
|Paraview                           |vol_solution.vtu                   |
|Paraview surface                   |surface.vtu                        |
+-----------------------------------------------------------------------+
+--------------------------------------------------------------------------------------------------------------------+
|  Inner_Iter|    rms[Rho]|   rms[RhoU]|   rms[RhoV]|   rms[RhoE]|          CD|          CL|         CMz|   LinSolRes|
+--------------------------------------------------------------------------------------------------------------------+
|         225|   -7.627452|   -6.587171|   -7.089001|   -7.054621|    0.007652|   -0.043293|    0.068476|   -0.929117|
|         250|   -7.559268|   -6.747756|   -7.201296|   -7.095903|    0.007645|   -0.043787|    0.068424|   -0.888882|
|         275|   -7.892010|   -6.898022|   -7.433554|   -7.380020|    0.007628|   -0.043491|    0.068567|   -0.817942|
|         300|   -8.008191|   -7.057569|   -7.624378|   -7.510835|    0.007592|   -0.042615|    0.068895|   -0.748507|
+-----------------------------------------------------------------------+
|        File Writing Summary       |              Filename             |
+-----------------------------------------------------------------------+
|SU2 binary restart                 |restart.dat                        |
|Paraview                           |vol_solution.vtu                   |
|Paraview surface                   |surface.vtu                        |
+-----------------------------------------------------------------------+
+--------------------------------------------------------------------------------------------------------------------+
|  Inner_Iter|    rms[Rho]|   rms[RhoU]|   rms[RhoV]|   rms[RhoE]|          CD|          CL|         CMz|   LinSolRes|
+--------------------------------------------------------------------------------------------------------------------+
|         325|   -8.146490|   -7.203173|   -7.694344|   -7.636903|    0.007598|   -0.042025|    0.069065|   -0.600852|
|         350|   -8.246229|   -7.319402|   -7.759281|   -7.741615|    0.007598|   -0.041538|    0.069223|   -0.646620|
|         375|   -8.360779|   -7.419246|   -7.867253|   -7.860427|    0.007605|   -0.041263|    0.069278|   -0.662358|
|         400|   -8.508957|   -7.520623|   -8.017502|   -7.997989|    0.007618|   -0.041105|    0.069309|   -0.640434|
+-----------------------------------------------------------------------+
|        File Writing Summary       |              Filename             |
+-----------------------------------------------------------------------+
|SU2 binary restart                 |restart.dat                        |
|Paraview                           |vol_solution.vtu                   |
|Paraview surface                   |surface.vtu                        |
+-----------------------------------------------------------------------+
+--------------------------------------------------------------------------------------------------------------------+
|  Inner_Iter|    rms[Rho]|   rms[RhoU]|   rms[RhoV]|   rms[RhoE]|          CD|          CL|         CMz|   LinSolRes|
+--------------------------------------------------------------------------------------------------------------------+
|         425|   -8.658972|   -7.627268|   -8.158254|   -8.116864|    0.007625|   -0.040983|    0.069336|   -0.634816|
|         450|   -8.701742|   -7.728842|   -8.220085|   -8.171304|    0.007629|   -0.040944|    0.069339|   -0.618437|
|         475|   -8.709761|   -7.817461|   -8.241451|   -8.212223|    0.007631|   -0.040881|    0.069361|   -0.601303|
|         500|   -8.757218|   -7.869077|   -8.297915|   -8.281671|    0.007631|   -0.040831|    0.069373|   -0.605510|
+-----------------------------------------------------------------------+
|        File Writing Summary       |              Filename             |
+-----------------------------------------------------------------------+
|SU2 binary restart                 |restart.dat                        |
|Paraview                           |vol_solution.vtu                   |
|Paraview surface                   |surface.vtu                        |
+-----------------------------------------------------------------------+
+--------------------------------------------------------------------------------------------------------------------+
|  Inner_Iter|    rms[Rho]|   rms[RhoU]|   rms[RhoV]|   rms[RhoE]|          CD|          CL|         CMz|   LinSolRes|
+--------------------------------------------------------------------------------------------------------------------+
|         525|   -8.840624|   -7.907663|   -8.403653|   -8.384627|    0.007629|   -0.040790|    0.069381|   -0.596170|
|         550|   -8.961661|   -7.974109|   -8.551879|   -8.516449|    0.007625|   -0.040707|    0.069408|   -0.584168|
|         575|   -9.081902|   -8.067772|   -8.701142|   -8.635892|    0.007623|   -0.040657|    0.069409|   -0.577618|
|         600|   -9.175101|   -8.164028|   -8.805245|   -8.724533|    0.007621|   -0.040622|    0.069405|   -0.608070|
+-----------------------------------------------------------------------+
|        File Writing Summary       |              Filename             |
+-----------------------------------------------------------------------+
|SU2 binary restart                 |restart.dat                        |
|Paraview                           |vol_solution.vtu                   |
|Paraview surface                   |surface.vtu                        |
+-----------------------------------------------------------------------+
+--------------------------------------------------------------------------------------------------------------------+
|  Inner_Iter|    rms[Rho]|   rms[RhoU]|   rms[RhoV]|   rms[RhoE]|          CD|          CL|         CMz|   LinSolRes|
+--------------------------------------------------------------------------------------------------------------------+
|         625|   -9.245605|   -8.261174|   -8.854281|   -8.784986|    0.007618|   -0.040585|    0.069399|   -0.630093|
|         650|   -9.291319|   -8.354022|   -8.878523|   -8.825328|    0.007618|   -0.040590|    0.069374|   -0.660458|
|         675|   -9.346714|   -8.423749|   -8.921774|   -8.883556|    0.007619|   -0.040608|    0.069348|   -0.691547|
|         700|   -9.389930|   -8.466537|   -8.986472|   -8.937310|    0.007619|   -0.040637|    0.069320|   -0.641068|
+-----------------------------------------------------------------------+
|        File Writing Summary       |              Filename             |
+-----------------------------------------------------------------------+
|SU2 binary restart                 |restart.dat                        |
|Paraview                           |vol_solution.vtu                   |
|Paraview surface                   |surface.vtu                        |
+-----------------------------------------------------------------------+
+--------------------------------------------------------------------------------------------------------------------+
|  Inner_Iter|    rms[Rho]|   rms[RhoU]|   rms[RhoV]|   rms[RhoE]|          CD|          CL|         CMz|   LinSolRes|
+--------------------------------------------------------------------------------------------------------------------+
|         725|   -9.425225|   -8.474472|   -9.060389|   -8.973446|    0.007620|   -0.040688|    0.069286|   -0.562164|
|         750|   -9.494987|   -8.471664|   -9.139676|   -9.041591|    0.007621|   -0.040732|    0.069261|   -0.563273|
|         775|   -9.414850|   -8.489826|   -9.180421|   -8.996235|    0.007622|   -0.040785|    0.069234|   -0.659206|
|         800|   -9.499702|   -8.538841|   -9.277379|   -9.112042|    0.007623|   -0.040833|    0.069212|   -0.707264|
+-----------------------------------------------------------------------+
|        File Writing Summary       |              Filename             |
+-----------------------------------------------------------------------+
|SU2 binary restart                 |restart.dat                        |
|Paraview                           |vol_solution.vtu                   |
|Paraview surface                   |surface.vtu                        |
+-----------------------------------------------------------------------+
+--------------------------------------------------------------------------------------------------------------------+
|  Inner_Iter|    rms[Rho]|   rms[RhoU]|   rms[RhoV]|   rms[RhoE]|          CD|          CL|         CMz|   LinSolRes|
+--------------------------------------------------------------------------------------------------------------------+
|         825|   -9.565741|   -8.608315|   -9.353272|   -9.202038|    0.007623|   -0.040876|    0.069193|   -0.655611|
|         850|   -9.613951|   -8.680039|   -9.412852|   -9.280253|    0.007625|   -0.040923|    0.069173|   -0.659869|
|         875|   -9.656989|   -8.742114|   -9.445225|   -9.345814|    0.007625|   -0.040963|    0.069156|   -0.675733|
|         900|   -9.692627|   -8.786319|   -9.465045|   -9.384426|    0.007627|   -0.041002|    0.069140|   -0.694007|
+-----------------------------------------------------------------------+
|        File Writing Summary       |              Filename             |
+-----------------------------------------------------------------------+
|SU2 binary restart                 |restart.dat                        |
|Paraview                           |vol_solution.vtu                   |
|Paraview surface                   |surface.vtu                        |
+-----------------------------------------------------------------------+
+--------------------------------------------------------------------------------------------------------------------+
|  Inner_Iter|    rms[Rho]|   rms[RhoU]|   rms[RhoV]|   rms[RhoE]|          CD|          CL|         CMz|   LinSolRes|
+--------------------------------------------------------------------------------------------------------------------+
|         925|   -9.733405|   -8.812217|   -9.461110|   -9.421828|    0.007628|   -0.041045|    0.069122|   -0.574288|
|         950|   -9.683128|   -8.830103|   -9.437792|   -9.351276|    0.007630|   -0.041084|    0.069106|   -0.680963|
|         975|   -9.731975|   -8.842424|   -9.436610|   -9.409999|    0.007632|   -0.041124|    0.069089|   -0.677267|
|        1000|   -9.738621|   -8.849077|   -9.428934|   -9.414098|    0.007634|   -0.041162|    0.069074|   -0.660695|
+-----------------------------------------------------------------------+
|        File Writing Summary       |              Filename             |
+-----------------------------------------------------------------------+
|SU2 binary restart                 |restart.dat                        |
|Paraview                           |vol_solution.vtu                   |
|Paraview surface                   |surface.vtu                        |
+-----------------------------------------------------------------------+
+--------------------------------------------------------------------------------------------------------------------+
|  Inner_Iter|    rms[Rho]|   rms[RhoU]|   rms[RhoV]|   rms[RhoE]|          CD|          CL|         CMz|   LinSolRes|
+--------------------------------------------------------------------------------------------------------------------+
|        1025|   -9.741463|   -8.854787|   -9.428395|   -9.414587|    0.007636|   -0.041199|    0.069059|   -0.650013|
|        1050|   -9.747215|   -8.860807|   -9.432634|   -9.418111|    0.007638|   -0.041237|    0.069044|   -0.643348|
|        1075|   -9.758205|   -8.867067|   -9.443424|   -9.428369|    0.007640|   -0.041274|    0.069030|   -0.639119|
|        1100|   -9.767358|   -8.874100|   -9.457639|   -9.435374|    0.007642|   -0.041310|    0.069015|   -0.637481|
+-----------------------------------------------------------------------+
|        File Writing Summary       |              Filename             |
+-----------------------------------------------------------------------+
|SU2 binary restart                 |restart.dat                        |
|Paraview                           |vol_solution.vtu                   |
|Paraview surface                   |surface.vtu                        |
+-----------------------------------------------------------------------+
+--------------------------------------------------------------------------------------------------------------------+
|  Inner_Iter|    rms[Rho]|   rms[RhoU]|   rms[RhoV]|   rms[RhoE]|          CD|          CL|         CMz|   LinSolRes|
+--------------------------------------------------------------------------------------------------------------------+
|        1125|   -9.779479|   -8.882590|   -9.471819|   -9.445801|    0.007645|   -0.041348|    0.069001|   -0.636952|
|        1150|   -9.793812|   -8.891852|   -9.487456|   -9.459311|    0.007647|   -0.041383|    0.068988|   -0.637991|
|        1175|   -9.807126|   -8.901265|   -9.503073|   -9.470284|    0.007649|   -0.041418|    0.068974|   -0.641341|
|        1200|   -9.821581|   -8.911319|   -9.515561|   -9.482889|    0.007651|   -0.041452|    0.068961|   -0.645186|
+-----------------------------------------------------------------------+
|        File Writing Summary       |              Filename             |
+-----------------------------------------------------------------------+
|SU2 binary restart                 |restart.dat                        |
|Paraview                           |vol_solution.vtu                   |
|Paraview surface                   |surface.vtu                        |
+-----------------------------------------------------------------------+
+--------------------------------------------------------------------------------------------------------------------+
|  Inner_Iter|    rms[Rho]|   rms[RhoU]|   rms[RhoV]|   rms[RhoE]|          CD|          CL|         CMz|   LinSolRes|
+--------------------------------------------------------------------------------------------------------------------+
|        1225|   -9.834491|   -8.921872|   -9.526888|   -9.494081|    0.007654|   -0.041485|    0.068948|   -0.648441|
|        1250|   -9.847219|   -8.932253|   -9.537688|   -9.504767|    0.007656|   -0.041518|    0.068936|   -0.651582|
|        1275|   -9.860950|   -8.942373|   -9.548236|   -9.517192|    0.007658|   -0.041550|    0.068924|   -0.653886|
|        1300|   -9.874312|   -8.952500|   -9.560124|   -9.529023|    0.007660|   -0.041580|    0.068913|   -0.656981|
+-----------------------------------------------------------------------+
|        File Writing Summary       |              Filename             |
+-----------------------------------------------------------------------+
|SU2 binary restart                 |restart.dat                        |
|Paraview                           |vol_solution.vtu                   |
|Paraview surface                   |surface.vtu                        |
+-----------------------------------------------------------------------+
+--------------------------------------------------------------------------------------------------------------------+
|  Inner_Iter|    rms[Rho]|   rms[RhoU]|   rms[RhoV]|   rms[RhoE]|          CD|          CL|         CMz|   LinSolRes|
+--------------------------------------------------------------------------------------------------------------------+
|        1325|   -9.888791|   -8.962522|   -9.572997|   -9.542060|    0.007662|   -0.041610|    0.068902|   -0.661675|
|        1350|   -9.904023|   -8.972325|   -9.587447|   -9.556396|    0.007665|   -0.041639|    0.068891|   -0.667695|
|        1375|   -9.918395|   -8.982065|   -9.603424|   -9.569373|    0.007667|   -0.041667|    0.068881|   -0.674560|
|        1400|   -9.933543|   -8.991816|   -9.619871|   -9.583485|    0.007668|   -0.041694|    0.068871|   -0.682099|
+-----------------------------------------------------------------------+
|        File Writing Summary       |              Filename             |
+-----------------------------------------------------------------------+
|SU2 binary restart                 |restart.dat                        |
|Paraview                           |vol_solution.vtu                   |
|Paraview surface                   |surface.vtu                        |
+-----------------------------------------------------------------------+
+--------------------------------------------------------------------------------------------------------------------+
|  Inner_Iter|    rms[Rho]|   rms[RhoU]|   rms[RhoV]|   rms[RhoE]|          CD|          CL|         CMz|   LinSolRes|
+--------------------------------------------------------------------------------------------------------------------+
|        1425|   -9.949059|   -9.001351|   -9.637435|   -9.598385|    0.007670|   -0.041719|    0.068861|   -0.690129|
|        1450|   -9.918096|   -9.010430|   -9.645518|   -9.554853|    0.007672|   -0.041744|    0.068852|   -0.678612|
|        1475|   -9.971041|   -9.020676|   -9.674709|   -9.614747|    0.007674|   -0.041769|    0.068843|   -0.769953|
|        1500|   -9.997051|   -9.030096|   -9.694981|   -9.645789|    0.007676|   -0.041792|    0.068835|   -0.721723|
+-----------------------------------------------------------------------+
|        File Writing Summary       |              Filename             |
+-----------------------------------------------------------------------+
|SU2 binary restart                 |restart.dat                        |
|Paraview                           |vol_solution.vtu                   |
|Paraview surface                   |surface.vtu                        |
+-----------------------------------------------------------------------+
+--------------------------------------------------------------------------------------------------------------------+
|  Inner_Iter|    rms[Rho]|   rms[RhoU]|   rms[RhoV]|   rms[RhoE]|          CD|          CL|         CMz|   LinSolRes|
+--------------------------------------------------------------------------------------------------------------------+
|        1525|  -10.010907|   -9.038897|   -9.713288|   -9.658439|    0.007677|   -0.041814|    0.068827|   -0.733716|
|        1550|  -10.025124|   -9.047549|   -9.731335|   -9.673870|    0.007679|   -0.041834|    0.068819|   -0.746481|
|        1575|  -10.031574|   -9.056860|   -9.746776|   -9.675874|    0.007681|   -0.041857|    0.068811|   -0.508014|
|        1600|  -10.041959|   -9.066557|   -9.775480|   -9.684467|    0.007682|   -0.041876|    0.068804|   -0.779429|
+-----------------------------------------------------------------------+
|        File Writing Summary       |              Filename             |
+-----------------------------------------------------------------------+
|SU2 binary restart                 |restart.dat                        |
|Paraview                           |vol_solution.vtu                   |
|Paraview surface                   |surface.vtu                        |
+-----------------------------------------------------------------------+
+--------------------------------------------------------------------------------------------------------------------+
|  Inner_Iter|    rms[Rho]|   rms[RhoU]|   rms[RhoV]|   rms[RhoE]|          CD|          CL|         CMz|   LinSolRes|
+--------------------------------------------------------------------------------------------------------------------+
|        1625|  -10.065769|   -9.074195|   -9.793288|   -9.712070|    0.007684|   -0.041893|    0.068798|   -0.733390|
|        1650|  -10.067302|   -9.082167|   -9.814220|   -9.712096|    0.007685|   -0.041909|    0.068792|   -0.806462|
|        1675|  -10.041673|   -9.089662|   -9.824964|   -9.678901|    0.007686|   -0.041924|    0.068786|   -0.744222|
|        1700|  -10.089823|   -9.097534|   -9.856564|   -9.737307|    0.007687|   -0.041939|    0.068780|   -0.921236|
+-----------------------------------------------------------------------+
|        File Writing Summary       |              Filename             |
+-----------------------------------------------------------------------+
|SU2 binary restart                 |restart.dat                        |
|Paraview                           |vol_solution.vtu                   |
|Paraview surface                   |surface.vtu                        |
+-----------------------------------------------------------------------+
+--------------------------------------------------------------------------------------------------------------------+
|  Inner_Iter|    rms[Rho]|   rms[RhoU]|   rms[RhoV]|   rms[RhoE]|          CD|          CL|         CMz|   LinSolRes|
+--------------------------------------------------------------------------------------------------------------------+
|        1725|  -10.126915|   -9.104897|   -9.878101|   -9.785327|    0.007688|   -0.041952|    0.068776|   -0.808145|
|        1750|  -10.119228|   -9.112281|   -9.897523|   -9.774803|    0.007690|   -0.041964|    0.068771|   -0.819741|
|        1775|  -10.108258|   -9.118858|   -9.907953|   -9.758087|    0.007691|   -0.041976|    0.068767|   -0.835433|
|        1800|  -10.104101|   -9.125424|   -9.925173|   -9.751120|    0.007692|   -0.041987|    0.068763|   -0.850738|
+-----------------------------------------------------------------------+
|        File Writing Summary       |              Filename             |
+-----------------------------------------------------------------------+
|SU2 binary restart                 |restart.dat                        |
|Paraview                           |vol_solution.vtu                   |
|Paraview surface                   |surface.vtu                        |
+-----------------------------------------------------------------------+
+--------------------------------------------------------------------------------------------------------------------+
|  Inner_Iter|    rms[Rho]|   rms[RhoU]|   rms[RhoV]|   rms[RhoE]|          CD|          CL|         CMz|   LinSolRes|
+--------------------------------------------------------------------------------------------------------------------+
|        1825|  -10.140479|   -9.132311|   -9.966000|   -9.802121|    0.007693|   -0.041996|    0.068759|   -0.769165|
|        1850|  -10.128258|   -9.138665|   -9.980521|   -9.788968|    0.007694|   -0.042005|    0.068755|   -0.806489|
|        1875|  -10.135186|   -9.144971|  -10.000557|   -9.797894|    0.007694|   -0.042013|    0.068752|   -0.774975|
|        1900|  -10.169493|   -9.151105|  -10.033441|   -9.840739|    0.007695|   -0.042021|    0.068749|   -0.800627|
+-----------------------------------------------------------------------+
|        File Writing Summary       |              Filename             |
+-----------------------------------------------------------------------+
|SU2 binary restart                 |restart.dat                        |
|Paraview                           |vol_solution.vtu                   |
|Paraview surface                   |surface.vtu                        |
+-----------------------------------------------------------------------+
+--------------------------------------------------------------------------------------------------------------------+
|  Inner_Iter|    rms[Rho]|   rms[RhoU]|   rms[RhoV]|   rms[RhoE]|          CD|          CL|         CMz|   LinSolRes|
+--------------------------------------------------------------------------------------------------------------------+
|        1925|  -10.123440|   -9.156449|  -10.025262|   -9.771869|    0.007696|   -0.042027|    0.068747|   -0.705679|
|        1950|  -10.121682|   -9.161882|  -10.041448|   -9.759417|    0.007697|   -0.042032|    0.068744|   -0.712117|
|        1975|  -10.130496|   -9.167692|  -10.064229|   -9.771493|    0.007698|   -0.042037|    0.068742|   -0.727723|
|        2000|  -10.148897|   -9.174367|  -10.085853|   -9.810966|    0.007698|   -0.042043|    0.068740|   -0.750747|
+-----------------------------------------------------------------------+
|        File Writing Summary       |              Filename             |
+-----------------------------------------------------------------------+
|SU2 binary restart                 |restart.dat                        |
|Paraview                           |vol_solution.vtu                   |
|Paraview surface                   |surface.vtu                        |
+-----------------------------------------------------------------------+
+--------------------------------------------------------------------------------------------------------------------+
|  Inner_Iter|    rms[Rho]|   rms[RhoU]|   rms[RhoV]|   rms[RhoE]|          CD|          CL|         CMz|   LinSolRes|
+--------------------------------------------------------------------------------------------------------------------+
|        2025|  -10.121687|   -9.181958|  -10.093592|   -9.780680|    0.007699|   -0.042048|    0.068738|   -0.619452|
|        2050|  -10.152304|   -9.192723|  -10.119572|   -9.818401|    0.007701|   -0.042054|    0.068734|   -0.763195|
|        2075|  -10.162991|   -9.198543|  -10.166106|   -9.829875|    0.007701|   -0.042056|    0.068733|   -0.799923|
|        2100|  -10.143956|   -9.204425|  -10.165675|   -9.811831|    0.007702|   -0.042058|    0.068732|   -0.818667|
+-----------------------------------------------------------------------+
|        File Writing Summary       |              Filename             |
+-----------------------------------------------------------------------+
|SU2 binary restart                 |restart.dat                        |
|Paraview                           |vol_solution.vtu                   |
|Paraview surface                   |surface.vtu                        |
+-----------------------------------------------------------------------+
+--------------------------------------------------------------------------------------------------------------------+
|  Inner_Iter|    rms[Rho]|   rms[RhoU]|   rms[RhoV]|   rms[RhoE]|          CD|          CL|         CMz|   LinSolRes|
+--------------------------------------------------------------------------------------------------------------------+
|        2125|  -10.144142|   -9.211094|  -10.134675|   -9.811505|    0.007703|   -0.042061|    0.068730|   -0.933348|
|        2150|  -10.152399|   -9.217482|  -10.209352|   -9.847080|    0.007703|   -0.042061|    0.068730|   -0.930105|
|        2175|  -10.159125|   -9.221757|  -10.204490|   -9.837474|    0.007704|   -0.042060|    0.068730|   -0.791976|
|        2200|  -10.164044|   -9.226864|  -10.217216|   -9.846740|    0.007704|   -0.042061|    0.068729|   -0.794088|
+-----------------------------------------------------------------------+
|        File Writing Summary       |              Filename             |
+-----------------------------------------------------------------------+
|SU2 binary restart                 |restart.dat                        |
|Paraview                           |vol_solution.vtu                   |
|Paraview surface                   |surface.vtu                        |
+-----------------------------------------------------------------------+
+--------------------------------------------------------------------------------------------------------------------+
|  Inner_Iter|    rms[Rho]|   rms[RhoU]|   rms[RhoV]|   rms[RhoE]|          CD|          CL|         CMz|   LinSolRes|
+--------------------------------------------------------------------------------------------------------------------+
|        2225|  -10.169843|   -9.231997|  -10.224985|   -9.864351|    0.007705|   -0.042060|    0.068728|   -0.786917|
|        2250|  -10.139723|   -9.240200|  -10.203058|   -9.819618|    0.007706|   -0.042059|    0.068728|   -0.673931|
|        2275|  -10.170537|   -9.249139|  -10.235623|   -9.876073|    0.007706|   -0.042057|    0.068728|   -0.767228|
|        2300|  -10.170356|   -9.254752|  -10.238704|   -9.874917|    0.007707|   -0.042054|    0.068728|   -0.757752|
+-----------------------------------------------------------------------+
|        File Writing Summary       |              Filename             |
+-----------------------------------------------------------------------+
|SU2 binary restart                 |restart.dat                        |
|Paraview                           |vol_solution.vtu                   |
|Paraview surface                   |surface.vtu                        |
+-----------------------------------------------------------------------+
+--------------------------------------------------------------------------------------------------------------------+
|  Inner_Iter|    rms[Rho]|   rms[RhoU]|   rms[RhoV]|   rms[RhoE]|          CD|          CL|         CMz|   LinSolRes|
+--------------------------------------------------------------------------------------------------------------------+
|        2325|  -10.169216|   -9.259619|  -10.238054|   -9.873028|    0.007707|   -0.042052|    0.068728|   -0.747692|
|        2350|  -10.167798|   -9.264817|  -10.238839|   -9.877338|    0.007708|   -0.042050|    0.068728|   -0.819644|
|        2375|  -10.208146|   -9.274004|  -10.259424|   -9.963201|    0.007708|   -0.042045|    0.068729|   -0.687071|
|        2400|  -10.165798|   -9.280086|  -10.227396|   -9.883507|    0.007709|   -0.042041|    0.068730|   -0.708431|
+-----------------------------------------------------------------------+
|        File Writing Summary       |              Filename             |
+-----------------------------------------------------------------------+
|SU2 binary restart                 |restart.dat                        |
|Paraview                           |vol_solution.vtu                   |
|Paraview surface                   |surface.vtu                        |
+-----------------------------------------------------------------------+
+--------------------------------------------------------------------------------------------------------------------+
|  Inner_Iter|    rms[Rho]|   rms[RhoU]|   rms[RhoV]|   rms[RhoE]|          CD|          CL|         CMz|   LinSolRes|
+--------------------------------------------------------------------------------------------------------------------+
|        2425|  -10.180723|   -9.285747|  -10.244560|   -9.913816|    0.007709|   -0.042038|    0.068731|   -0.769972|
|        2450|  -10.168234|   -9.290687|  -10.227295|   -9.911744|    0.007709|   -0.042034|    0.068731|   -0.871669|
|        2475|  -10.176184|   -9.295858|  -10.233837|   -9.926030|    0.007710|   -0.042030|    0.068732|   -0.749449|
|        2500|  -10.168785|   -9.301508|  -10.223411|   -9.912081|    0.007710|   -0.042026|    0.068733|   -0.725401|
+-----------------------------------------------------------------------+
|        File Writing Summary       |              Filename             |
+-----------------------------------------------------------------------+
|SU2 binary restart                 |restart.dat                        |
|Paraview                           |vol_solution.vtu                   |
|Paraview surface                   |surface.vtu                        |
+-----------------------------------------------------------------------+
+--------------------------------------------------------------------------------------------------------------------+
|  Inner_Iter|    rms[Rho]|   rms[RhoU]|   rms[RhoV]|   rms[RhoE]|          CD|          CL|         CMz|   LinSolRes|
+--------------------------------------------------------------------------------------------------------------------+
|        2525|  -10.194815|   -9.307594|  -10.248650|   -9.973606|    0.007711|   -0.042021|    0.068734|   -0.730808|
|        2550|  -10.169161|   -9.312858|  -10.224914|   -9.923898|    0.007711|   -0.042016|    0.068735|   -0.832731|
|        2575|  -10.189759|   -9.318135|  -10.225179|   -9.967650|    0.007711|   -0.042011|    0.068736|   -0.828822|
|        2600|  -10.191118|   -9.323709|  -10.234569|   -9.977390|    0.007711|   -0.042006|    0.068738|   -0.942421|
+-----------------------------------------------------------------------+
|        File Writing Summary       |              Filename             |
+-----------------------------------------------------------------------+
|SU2 binary restart                 |restart.dat                        |
|Paraview                           |vol_solution.vtu                   |
|Paraview surface                   |surface.vtu                        |
+-----------------------------------------------------------------------+
+--------------------------------------------------------------------------------------------------------------------+
|  Inner_Iter|    rms[Rho]|   rms[RhoU]|   rms[RhoV]|   rms[RhoE]|          CD|          CL|         CMz|   LinSolRes|
+--------------------------------------------------------------------------------------------------------------------+
|        2625|  -10.208824|   -9.329065|  -10.232990|  -10.024169|    0.007712|   -0.042000|    0.068739|   -0.703018|
|        2650|  -10.194950|   -9.334664|  -10.234041|   -9.993232|    0.007712|   -0.041995|    0.068740|   -0.823350|
|        2675|  -10.200187|   -9.340172|  -10.225190|  -10.014465|    0.007712|   -0.041989|    0.068742|   -0.791633|
|        2700|  -10.193661|   -9.345934|  -10.228645|   -9.996071|    0.007713|   -0.041983|    0.068743|   -0.836015|
+-----------------------------------------------------------------------+
|        File Writing Summary       |              Filename             |
+-----------------------------------------------------------------------+
|SU2 binary restart                 |restart.dat                        |
|Paraview                           |vol_solution.vtu                   |
|Paraview surface                   |surface.vtu                        |
+-----------------------------------------------------------------------+
+--------------------------------------------------------------------------------------------------------------------+
|  Inner_Iter|    rms[Rho]|   rms[RhoU]|   rms[RhoV]|   rms[RhoE]|          CD|          CL|         CMz|   LinSolRes|
+--------------------------------------------------------------------------------------------------------------------+
|        2725|  -10.199433|   -9.351423|  -10.219380|  -10.019553|    0.007713|   -0.041977|    0.068745|   -0.775317|
|        2750|  -10.193086|   -9.357020|  -10.221219|  -10.001765|    0.007713|   -0.041970|    0.068746|   -0.819122|
|        2775|  -10.200648|   -9.362402|  -10.211657|  -10.027067|    0.007713|   -0.041964|    0.068748|   -0.759539|
|        2800|  -10.192365|   -9.368210|  -10.216875|  -10.006805|    0.007714|   -0.041958|    0.068750|   -0.803896|
+-----------------------------------------------------------------------+
|        File Writing Summary       |              Filename             |
+-----------------------------------------------------------------------+
|SU2 binary restart                 |restart.dat                        |
|Paraview                           |vol_solution.vtu                   |
|Paraview surface                   |surface.vtu                        |
+-----------------------------------------------------------------------+
+--------------------------------------------------------------------------------------------------------------------+
|  Inner_Iter|    rms[Rho]|   rms[RhoU]|   rms[RhoV]|   rms[RhoE]|          CD|          CL|         CMz|   LinSolRes|
+--------------------------------------------------------------------------------------------------------------------+
|        2825|  -10.200497|   -9.373625|  -10.208846|  -10.033465|    0.007714|   -0.041951|    0.068751|   -0.744854|
|        2850|  -10.193480|   -9.379300|  -10.214732|  -10.013066|    0.007714|   -0.041945|    0.068753|   -0.790707|
|        2875|  -10.200737|   -9.384804|  -10.208150|  -10.040798|    0.007714|   -0.041938|    0.068755|   -0.731924|
|        2900|  -10.193756|   -9.390708|  -10.214286|  -10.019188|    0.007715|   -0.041932|    0.068757|   -0.778863|
+-----------------------------------------------------------------------+
|        File Writing Summary       |              Filename             |
+-----------------------------------------------------------------------+
|SU2 binary restart                 |restart.dat                        |
|Paraview                           |vol_solution.vtu                   |
|Paraview surface                   |surface.vtu                        |
+-----------------------------------------------------------------------+
+--------------------------------------------------------------------------------------------------------------------+
|  Inner_Iter|    rms[Rho]|   rms[RhoU]|   rms[RhoV]|   rms[RhoE]|          CD|          CL|         CMz|   LinSolRes|
+--------------------------------------------------------------------------------------------------------------------+
|        2925|  -10.201901|   -9.396221|  -10.207457|  -10.048316|    0.007715|   -0.041925|    0.068758|   -0.720155|
|        2950|  -10.194380|   -9.402085|  -10.212323|  -10.025902|    0.007715|   -0.041918|    0.068760|   -0.767876|
|        2975|  -10.202563|   -9.407622|  -10.205528|  -10.054927|    0.007715|   -0.041911|    0.068762|   -0.709079|
|        3000|  -10.195008|   -9.413562|  -10.211178|  -10.031905|    0.007715|   -0.041905|    0.068764|   -0.756734|
+-----------------------------------------------------------------------+
|        File Writing Summary       |              Filename             |
+-----------------------------------------------------------------------+
|SU2 binary restart                 |restart.dat                        |
|Paraview                           |vol_solution.vtu                   |
|Paraview surface                   |surface.vtu                        |
+-----------------------------------------------------------------------+
+--------------------------------------------------------------------------------------------------------------------+
|  Inner_Iter|    rms[Rho]|   rms[RhoU]|   rms[RhoV]|   rms[RhoE]|          CD|          CL|         CMz|   LinSolRes|
+--------------------------------------------------------------------------------------------------------------------+
|        3025|  -10.203605|   -9.419070|  -10.204473|  -10.062659|    0.007716|   -0.041898|    0.068766|   -0.698309|
|        3050|  -10.196281|   -9.425043|  -10.210177|  -10.039016|    0.007716|   -0.041891|    0.068768|   -0.746941|
|        3075|  -10.204484|   -9.430643|  -10.204386|  -10.069736|    0.007716|   -0.041884|    0.068769|   -0.688257|
|        3100|  -10.197477|   -9.436693|  -10.210393|  -10.046099|    0.007716|   -0.041877|    0.068771|   -0.737418|
+-----------------------------------------------------------------------+
|        File Writing Summary       |              Filename             |
+-----------------------------------------------------------------------+
|SU2 binary restart                 |restart.dat                        |
|Paraview                           |vol_solution.vtu                   |
|Paraview surface                   |surface.vtu                        |
+-----------------------------------------------------------------------+
+--------------------------------------------------------------------------------------------------------------------+
|  Inner_Iter|    rms[Rho]|   rms[RhoU]|   rms[RhoV]|   rms[RhoE]|          CD|          CL|         CMz|   LinSolRes|
+--------------------------------------------------------------------------------------------------------------------+
|        3125|  -10.206115|   -9.442287|  -10.204958|  -10.077878|    0.007716|   -0.041870|    0.068773|   -0.679458|
|        3150|  -10.198913|   -9.448424|  -10.211595|  -10.053650|    0.007716|   -0.041863|    0.068775|   -0.729538|
|        3175|  -10.207769|   -9.454091|  -10.207172|  -10.086333|    0.007717|   -0.041856|    0.068777|   -0.671682|
|        3200|  -10.200921|   -9.460271|  -10.214446|  -10.062103|    0.007717|   -0.041849|    0.068779|   -0.721945|
+-----------------------------------------------------------------------+
|        File Writing Summary       |              Filename             |
+-----------------------------------------------------------------------+
|SU2 binary restart                 |restart.dat                        |
|Paraview                           |vol_solution.vtu                   |
|Paraview surface                   |surface.vtu                        |
+-----------------------------------------------------------------------+
+--------------------------------------------------------------------------------------------------------------------+
|  Inner_Iter|    rms[Rho]|   rms[RhoU]|   rms[RhoV]|   rms[RhoE]|          CD|          CL|         CMz|   LinSolRes|
+--------------------------------------------------------------------------------------------------------------------+
|        3225|  -10.209594|   -9.465959|  -10.210371|  -10.095053|    0.007717|   -0.041842|    0.068781|   -0.664047|
|        3250|  -10.202916|   -9.472225|  -10.217972|  -10.070488|    0.007717|   -0.041835|    0.068783|   -0.714864|
|        3275|  -10.211684|   -9.477955|  -10.214346|  -10.104219|    0.007717|   -0.041828|    0.068785|   -0.657757|
|        3300|  -10.205139|   -9.484264|  -10.221824|  -10.079380|    0.007717|   -0.041821|    0.068787|   -0.708724|
+-----------------------------------------------------------------------+
|        File Writing Summary       |              Filename             |
+-----------------------------------------------------------------------+
|SU2 binary restart                 |restart.dat                        |
|Paraview                           |vol_solution.vtu                   |
|Paraview surface                   |surface.vtu                        |
+-----------------------------------------------------------------------+
+--------------------------------------------------------------------------------------------------------------------+
|  Inner_Iter|    rms[Rho]|   rms[RhoU]|   rms[RhoV]|   rms[RhoE]|          CD|          CL|         CMz|   LinSolRes|
+--------------------------------------------------------------------------------------------------------------------+
|        3325|  -10.213950|   -9.490034|  -10.218217|  -10.113686|    0.007718|   -0.041814|    0.068789|   -0.651588|
|        3350|  -10.207458|   -9.496397|  -10.225702|  -10.088443|    0.007718|   -0.041807|    0.068791|   -0.702708|
|        3375|  -10.216193|   -9.502149|  -10.222286|  -10.122966|    0.007718|   -0.041800|    0.068793|   -0.645494|
|        3400|  -10.216558|   -9.508648|  -10.232025|  -10.125451|    0.007718|   -0.041794|    0.068795|   -0.695511|
+-----------------------------------------------------------------------+
|        File Writing Summary       |              Filename             |
+-----------------------------------------------------------------------+
|SU2 binary restart                 |restart.dat                        |
|Paraview                           |vol_solution.vtu                   |
|Paraview surface                   |surface.vtu                        |
+-----------------------------------------------------------------------+
+--------------------------------------------------------------------------------------------------------------------+
|  Inner_Iter|    rms[Rho]|   rms[RhoU]|   rms[RhoV]|   rms[RhoE]|          CD|          CL|         CMz|   LinSolRes|
+--------------------------------------------------------------------------------------------------------------------+
|        3425|  -10.216856|   -9.514870|  -10.234515|  -10.129901|    0.007718|   -0.041787|    0.068797|   -0.693029|
|        3450|  -10.219718|   -9.521029|  -10.236091|  -10.136268|    0.007718|   -0.041780|    0.068799|   -0.690387|
|        3475|  -10.219750|   -9.527287|  -10.239011|  -10.140398|    0.007718|   -0.041773|    0.068801|   -0.687715|
|        3500|  -10.221429|   -9.533597|  -10.241715|  -10.145607|    0.007719|   -0.041766|    0.068803|   -0.686145|
+-----------------------------------------------------------------------+
|        File Writing Summary       |              Filename             |
+-----------------------------------------------------------------------+
|SU2 binary restart                 |restart.dat                        |
|Paraview                           |vol_solution.vtu                   |
|Paraview surface                   |surface.vtu                        |
+-----------------------------------------------------------------------+
+--------------------------------------------------------------------------------------------------------------------+
|  Inner_Iter|    rms[Rho]|   rms[RhoU]|   rms[RhoV]|   rms[RhoE]|          CD|          CL|         CMz|   LinSolRes|
+--------------------------------------------------------------------------------------------------------------------+
|        3525|  -10.223351|   -9.539911|  -10.244945|  -10.151541|    0.007719|   -0.041759|    0.068805|   -0.684009|
|        3550|  -10.224213|   -9.546264|  -10.248607|  -10.156974|    0.007719|   -0.041753|    0.068806|   -0.682016|
|        3575|  -10.225953|   -9.552567|  -10.252860|  -10.161896|    0.007719|   -0.041746|    0.068808|   -0.680339|
|        3600|  -10.227540|   -9.558744|  -10.257449|  -10.168030|    0.007719|   -0.041739|    0.068810|   -0.678730|
+-----------------------------------------------------------------------+
|        File Writing Summary       |              Filename             |
+-----------------------------------------------------------------------+
|SU2 binary restart                 |restart.dat                        |
|Paraview                           |vol_solution.vtu                   |
|Paraview surface                   |surface.vtu                        |
+-----------------------------------------------------------------------+
+--------------------------------------------------------------------------------------------------------------------+
|  Inner_Iter|    rms[Rho]|   rms[RhoU]|   rms[RhoV]|   rms[RhoE]|          CD|          CL|         CMz|   LinSolRes|
+--------------------------------------------------------------------------------------------------------------------+
|        3625|  -10.228978|   -9.564956|  -10.261693|  -10.173771|    0.007719|   -0.041733|    0.068812|   -0.676904|
|        3650|  -10.230682|   -9.571357|  -10.265948|  -10.179410|    0.007719|   -0.041726|    0.068814|   -0.675750|
|        3675|  -10.232012|   -9.577808|  -10.269972|  -10.184611|    0.007719|   -0.041720|    0.068816|   -0.674252|
|        3700|  -10.233646|   -9.584139|  -10.273330|  -10.190451|    0.007720|   -0.041713|    0.068818|   -0.672342|
+-----------------------------------------------------------------------+
|        File Writing Summary       |              Filename             |
+-----------------------------------------------------------------------+
|SU2 binary restart                 |restart.dat                        |
|Paraview                           |vol_solution.vtu                   |
|Paraview surface                   |surface.vtu                        |
+-----------------------------------------------------------------------+
+--------------------------------------------------------------------------------------------------------------------+
|  Inner_Iter|    rms[Rho]|   rms[RhoU]|   rms[RhoV]|   rms[RhoE]|          CD|          CL|         CMz|   LinSolRes|
+--------------------------------------------------------------------------------------------------------------------+
|        3725|  -10.235214|   -9.590465|  -10.276910|  -10.195763|    0.007720|   -0.041707|    0.068820|   -0.670974|
|        3750|  -10.236523|   -9.596820|  -10.280905|  -10.201030|    0.007720|   -0.041700|    0.068822|   -0.669550|
|        3775|  -10.238255|   -9.603158|  -10.284761|  -10.206876|    0.007720|   -0.041694|    0.068823|   -0.667909|
|        3800|  -10.239860|   -9.609490|  -10.288957|  -10.212558|    0.007720|   -0.041688|    0.068825|   -0.666791|
+-----------------------------------------------------------------------+
|        File Writing Summary       |              Filename             |
+-----------------------------------------------------------------------+
|SU2 binary restart                 |restart.dat                        |
|Paraview                           |vol_solution.vtu                   |
|Paraview surface                   |surface.vtu                        |
+-----------------------------------------------------------------------+
+--------------------------------------------------------------------------------------------------------------------+
|  Inner_Iter|    rms[Rho]|   rms[RhoU]|   rms[RhoV]|   rms[RhoE]|          CD|          CL|         CMz|   LinSolRes|
+--------------------------------------------------------------------------------------------------------------------+
|        3825|  -10.241325|   -9.615881|  -10.293293|  -10.218198|    0.007720|   -0.041682|    0.068827|   -0.665523|
|        3850|  -10.243021|   -9.622287|  -10.297773|  -10.223858|    0.007720|   -0.041676|    0.068829|   -0.664193|
|        3875|  -10.244671|   -9.628664|  -10.302519|  -10.229845|    0.007720|   -0.041670|    0.068830|   -0.663249|
|        3900|  -10.246323|   -9.635072|  -10.307270|  -10.235838|    0.007720|   -0.041664|    0.068832|   -0.662206|
+-----------------------------------------------------------------------+
|        File Writing Summary       |              Filename             |
+-----------------------------------------------------------------------+
|SU2 binary restart                 |restart.dat                        |
|Paraview                           |vol_solution.vtu                   |
|Paraview surface                   |surface.vtu                        |
+-----------------------------------------------------------------------+
+--------------------------------------------------------------------------------------------------------------------+
|  Inner_Iter|    rms[Rho]|   rms[RhoU]|   rms[RhoV]|   rms[RhoE]|          CD|          CL|         CMz|   LinSolRes|
+--------------------------------------------------------------------------------------------------------------------+
|        3925|  -10.247985|   -9.641520|  -10.312167|  -10.241531|    0.007720|   -0.041658|    0.068834|   -0.661302|
|        3950|  -10.249647|   -9.647958|  -10.317068|  -10.247616|    0.007720|   -0.041652|    0.068836|   -0.660323|
|        3975|  -10.251349|   -9.654374|  -10.321823|  -10.253613|    0.007721|   -0.041646|    0.068837|   -0.659362|
|        4000|  -10.252973|   -9.660796|  -10.326632|  -10.259223|    0.007721|   -0.041640|    0.068839|   -0.658676|
+-----------------------------------------------------------------------+
|        File Writing Summary       |              Filename             |
+-----------------------------------------------------------------------+
|SU2 binary restart                 |restart.dat                        |
|Paraview                           |vol_solution.vtu                   |
|Paraview surface                   |surface.vtu                        |
+-----------------------------------------------------------------------+
+--------------------------------------------------------------------------------------------------------------------+
|  Inner_Iter|    rms[Rho]|   rms[RhoU]|   rms[RhoV]|   rms[RhoE]|          CD|          CL|         CMz|   LinSolRes|
+--------------------------------------------------------------------------------------------------------------------+
|        4025|  -10.254631|   -9.667234|  -10.331440|  -10.265286|    0.007721|   -0.041635|    0.068841|   -0.657544|
|        4050|  -10.256341|   -9.673679|  -10.336087|  -10.271192|    0.007721|   -0.041629|    0.068842|   -0.656759|
|        4075|  -10.257962|   -9.680129|  -10.340725|  -10.276812|    0.007721|   -0.041624|    0.068844|   -0.656069|
|        4100|  -10.259640|   -9.686581|  -10.345436|  -10.282841|    0.007721|   -0.041618|    0.068845|   -0.654894|
+-----------------------------------------------------------------------+
|        File Writing Summary       |              Filename             |
+-----------------------------------------------------------------------+
|SU2 binary restart                 |restart.dat                        |
|Paraview                           |vol_solution.vtu                   |
|Paraview surface                   |surface.vtu                        |
+-----------------------------------------------------------------------+
+--------------------------------------------------------------------------------------------------------------------+
|  Inner_Iter|    rms[Rho]|   rms[RhoU]|   rms[RhoV]|   rms[RhoE]|          CD|          CL|         CMz|   LinSolRes|
+--------------------------------------------------------------------------------------------------------------------+
|        4125|  -10.261341|   -9.693026|  -10.350245|  -10.288691|    0.007721|   -0.041613|    0.068847|   -0.654342|
|        4150|  -10.263014|   -9.699463|  -10.355179|  -10.294576|    0.007721|   -0.041607|    0.068848|   -0.653585|
|        4175|  -10.264718|   -9.705903|  -10.360203|  -10.300595|    0.007721|   -0.041602|    0.068850|   -0.652702|
|        4200|  -10.266429|   -9.712340|  -10.365378|  -10.306571|    0.007721|   -0.041597|    0.068852|   -0.652179|
+-----------------------------------------------------------------------+
|        File Writing Summary       |              Filename             |
+-----------------------------------------------------------------------+
|SU2 binary restart                 |restart.dat                        |
|Paraview                           |vol_solution.vtu                   |
|Paraview surface                   |surface.vtu                        |
+-----------------------------------------------------------------------+
+--------------------------------------------------------------------------------------------------------------------+
|  Inner_Iter|    rms[Rho]|   rms[RhoU]|   rms[RhoV]|   rms[RhoE]|          CD|          CL|         CMz|   LinSolRes|
+--------------------------------------------------------------------------------------------------------------------+
|        4225|  -10.268141|   -9.718775|  -10.370589|  -10.312666|    0.007721|   -0.041592|    0.068853|   -0.651417|
|        4250|  -10.269845|   -9.725222|  -10.375743|  -10.318549|    0.007721|   -0.041587|    0.068855|   -0.650957|
|        4275|  -10.271576|   -9.731681|  -10.380901|  -10.324708|    0.007721|   -0.041581|    0.068856|   -0.650241|
|        4300|  -10.273284|   -9.738144|  -10.385948|  -10.330712|    0.007722|   -0.041576|    0.068857|   -0.649707|
+-----------------------------------------------------------------------+
|        File Writing Summary       |              Filename             |
+-----------------------------------------------------------------------+
|SU2 binary restart                 |restart.dat                        |
|Paraview                           |vol_solution.vtu                   |
|Paraview surface                   |surface.vtu                        |
+-----------------------------------------------------------------------+
+--------------------------------------------------------------------------------------------------------------------+
|  Inner_Iter|    rms[Rho]|   rms[RhoU]|   rms[RhoV]|   rms[RhoE]|          CD|          CL|         CMz|   LinSolRes|
+--------------------------------------------------------------------------------------------------------------------+
|        4325|  -10.274974|   -9.744597|  -10.390930|  -10.336443|    0.007722|   -0.041572|    0.068859|   -0.649322|
|        4350|  -10.276702|   -9.751047|  -10.395956|  -10.342587|    0.007722|   -0.041567|    0.068860|   -0.648431|
|        4375|  -10.278406|   -9.757491|  -10.401025|  -10.348461|    0.007722|   -0.041562|    0.068862|   -0.648117|
|        4400|  -10.280130|   -9.763921|  -10.406208|  -10.354408|    0.007722|   -0.041557|    0.068863|   -0.647557|
+-----------------------------------------------------------------------+
|        File Writing Summary       |              Filename             |
+-----------------------------------------------------------------------+
|SU2 binary restart                 |restart.dat                        |
|Paraview                           |vol_solution.vtu                   |
|Paraview surface                   |surface.vtu                        |
+-----------------------------------------------------------------------+
+--------------------------------------------------------------------------------------------------------------------+
|  Inner_Iter|    rms[Rho]|   rms[RhoU]|   rms[RhoV]|   rms[RhoE]|          CD|          CL|         CMz|   LinSolRes|
+--------------------------------------------------------------------------------------------------------------------+
|        4425|  -10.281852|   -9.770350|  -10.411472|  -10.360463|    0.007722|   -0.041552|    0.068864|   -0.646977|
|        4450|  -10.283589|   -9.776782|  -10.416803|  -10.366532|    0.007722|   -0.041548|    0.068866|   -0.646615|
|        4475|  -10.285331|   -9.783220|  -10.422128|  -10.372647|    0.007722|   -0.041543|    0.068867|   -0.646067|
|        4500|  -10.287040|   -9.789661|  -10.427394|  -10.378486|    0.007722|   -0.041539|    0.068868|   -0.645880|
+-----------------------------------------------------------------------+
|        File Writing Summary       |              Filename             |
+-----------------------------------------------------------------------+
|SU2 binary restart                 |restart.dat                        |
|Paraview                           |vol_solution.vtu                   |
|Paraview surface                   |surface.vtu                        |
+-----------------------------------------------------------------------+
+--------------------------------------------------------------------------------------------------------------------+
|  Inner_Iter|    rms[Rho]|   rms[RhoU]|   rms[RhoV]|   rms[RhoE]|          CD|          CL|         CMz|   LinSolRes|
+--------------------------------------------------------------------------------------------------------------------+
|        4525|  -10.288799|   -9.796104|  -10.432642|  -10.384700|    0.007722|   -0.041534|    0.068870|   -0.645246|
|        4550|  -10.290524|   -9.802565|  -10.437821|  -10.390635|    0.007722|   -0.041530|    0.068871|   -0.644979|
|        4575|  -10.292243|   -9.809019|  -10.442979|  -10.396460|    0.007722|   -0.041525|    0.068872|   -0.644634|
|        4600|  -10.293998|   -9.815462|  -10.448196|  -10.402576|    0.007722|   -0.041521|    0.068873|   -0.644030|
+-----------------------------------------------------------------------+
|        File Writing Summary       |              Filename             |
+-----------------------------------------------------------------------+
|SU2 binary restart                 |restart.dat                        |
|Paraview                           |vol_solution.vtu                   |
|Paraview surface                   |surface.vtu                        |
+-----------------------------------------------------------------------+
+--------------------------------------------------------------------------------------------------------------------+
|  Inner_Iter|    rms[Rho]|   rms[RhoU]|   rms[RhoV]|   rms[RhoE]|          CD|          CL|         CMz|   LinSolRes|
+--------------------------------------------------------------------------------------------------------------------+
|        4625|  -10.295736|   -9.821898|  -10.453508|  -10.408559|    0.007722|   -0.041517|    0.068875|   -0.643868|
|        4650|  -10.297493|   -9.828336|  -10.458877|  -10.414679|    0.007722|   -0.041512|    0.068876|   -0.643384|
|        4675|  -10.299237|   -9.834777|  -10.464268|  -10.420615|    0.007722|   -0.041508|    0.068877|   -0.643258|
|        4700|  -10.301008|   -9.841217|  -10.469719|  -10.426851|    0.007722|   -0.041504|    0.068878|   -0.642852|
+-----------------------------------------------------------------------+
|        File Writing Summary       |              Filename             |
+-----------------------------------------------------------------------+
|SU2 binary restart                 |restart.dat                        |
|Paraview                           |vol_solution.vtu                   |
|Paraview surface                   |surface.vtu                        |
+-----------------------------------------------------------------------+
+--------------------------------------------------------------------------------------------------------------------+
|  Inner_Iter|    rms[Rho]|   rms[RhoU]|   rms[RhoV]|   rms[RhoE]|          CD|          CL|         CMz|   LinSolRes|
+--------------------------------------------------------------------------------------------------------------------+
|        4725|  -10.302764|   -9.847662|  -10.475146|  -10.432883|    0.007722|   -0.041500|    0.068880|   -0.642661|
|        4750|  -10.304509|   -9.854105|  -10.480577|  -10.438753|    0.007722|   -0.041496|    0.068881|   -0.642545|
|        4775|  -10.306286|   -9.860548|  -10.486011|  -10.444971|    0.007722|   -0.041492|    0.068882|   -0.642075|
|        4800|  -10.308044|   -9.866988|  -10.491446|  -10.450949|    0.007723|   -0.041488|    0.068883|   -0.642066|
+-----------------------------------------------------------------------+
|        File Writing Summary       |              Filename             |
+-----------------------------------------------------------------------+
|SU2 binary restart                 |restart.dat                        |
|Paraview                           |vol_solution.vtu                   |
|Paraview surface                   |surface.vtu                        |
+-----------------------------------------------------------------------+
+--------------------------------------------------------------------------------------------------------------------+
|  Inner_Iter|    rms[Rho]|   rms[RhoU]|   rms[RhoV]|   rms[RhoE]|          CD|          CL|         CMz|   LinSolRes|
+--------------------------------------------------------------------------------------------------------------------+
|        4825|  -10.309812|   -9.873426|  -10.496881|  -10.457055|    0.007723|   -0.041484|    0.068884|   -0.641678|
|        4850|  -10.311573|   -9.879871|  -10.502279|  -10.463005|    0.007723|   -0.041481|    0.068885|   -0.641619|
|        4875|  -10.313362|   -9.886317|  -10.507727|  -10.469231|    0.007723|   -0.041477|    0.068886|   -0.641377|
|        4900|  -10.315137|   -9.892768|  -10.513177|  -10.475294|    0.007723|   -0.041473|    0.068887|   -0.641290|
+-----------------------------------------------------------------------+
|        File Writing Summary       |              Filename             |
+-----------------------------------------------------------------------+
|SU2 binary restart                 |restart.dat                        |
|Paraview                           |vol_solution.vtu                   |
|Paraview surface                   |surface.vtu                        |
+-----------------------------------------------------------------------+
+--------------------------------------------------------------------------------------------------------------------+
|  Inner_Iter|    rms[Rho]|   rms[RhoU]|   rms[RhoV]|   rms[RhoE]|          CD|          CL|         CMz|   LinSolRes|
+--------------------------------------------------------------------------------------------------------------------+
|        4925|  -10.316902|   -9.899218|  -10.518667|  -10.481189|    0.007723|   -0.041469|    0.068888|   -0.641295|
|        4950|  -10.318697|   -9.905666|  -10.524211|  -10.487428|    0.007723|   -0.041466|    0.068889|   -0.640942|
|        4975|  -10.320479|   -9.912108|  -10.529814|  -10.493451|    0.007723|   -0.041462|    0.068890|   -0.641067|
[...]
|Paraview surface                   |surface.vtu                        |
+-----------------------------------------------------------------------+
+--------------------------------------------------------------------------------------------------------------------+
|  Inner_Iter|    rms[Rho]|   rms[RhoU]|   rms[RhoV]|   rms[RhoE]|          CD|          CL|         CMz|   LinSolRes|
+--------------------------------------------------------------------------------------------------------------------+
|        5725|  -10.375621|  -10.107287|  -10.703723|  -10.679656|    0.007723|   -0.041375|    0.068915|   -0.647412|
|        5750|  -10.377515|  -10.113865|  -10.709754|  -10.686105|    0.007723|   -0.041372|    0.068916|   -0.647844|
|        5775|  -10.379408|  -10.120446|  -10.715821|  -10.692417|    0.007723|   -0.041370|    0.068917|   -0.648539|
|        5800|  -10.381308|  -10.127034|  -10.721904|  -10.698862|    0.007723|   -0.041368|    0.068917|   -0.648924|
+-----------------------------------------------------------------------+
|        File Writing Summary       |              Filename             |
+-----------------------------------------------------------------------+
|SU2 binary restart                 |restart.dat                        |
|Paraview                           |vol_solution.vtu                   |
|Paraview surface                   |surface.vtu                        |
+-----------------------------------------------------------------------+
+--------------------------------------------------------------------------------------------------------------------+
|  Inner_Iter|    rms[Rho]|   rms[RhoU]|   rms[RhoV]|   rms[RhoE]|          CD|          CL|         CMz|   LinSolRes|
+--------------------------------------------------------------------------------------------------------------------+
|        5825|  -10.383201|  -10.133630|  -10.727982|  -10.705057|    0.007723|   -0.041366|    0.068918|   -0.649747|
|        5850|  -10.385112|  -10.140230|  -10.734101|  -10.711601|    0.007723|   -0.041363|    0.068919|   -0.650172|
|        5875|  -10.387012|  -10.146836|  -10.740215|  -10.717820|    0.007723|   -0.041361|    0.068919|   -0.650983|
|        5900|  -10.388923|  -10.153444|  -10.746379|  -10.724234|    0.007723|   -0.041359|    0.068920|   -0.651496|
+-----------------------------------------------------------------------+
|        File Writing Summary       |              Filename             |
+-----------------------------------------------------------------------+
|SU2 binary restart                 |restart.dat                        |
|Paraview                           |vol_solution.vtu                   |
|Paraview surface                   |surface.vtu                        |
+-----------------------------------------------------------------------+
+--------------------------------------------------------------------------------------------------------------------+
|  Inner_Iter|    rms[Rho]|   rms[RhoU]|   rms[RhoV]|   rms[RhoE]|          CD|          CL|         CMz|   LinSolRes|
+--------------------------------------------------------------------------------------------------------------------+
|        5925|  -10.390838|  -10.160064|  -10.752541|  -10.730658|    0.007723|   -0.041357|    0.068921|   -0.652283|
|        5950|  -10.392758|  -10.166687|  -10.758755|  -10.737164|    0.007723|   -0.041355|    0.068921|   -0.653011|
|        5975|  -10.394678|  -10.173320|  -10.764953|  -10.743571|    0.007723|   -0.041353|    0.068922|   -0.653697|
|        6000|  -10.396596|  -10.179957|  -10.771166|  -10.749832|    0.007723|   -0.041351|    0.068922|   -0.654578|
+-----------------------------------------------------------------------+
|        File Writing Summary       |              Filename             |
+-----------------------------------------------------------------------+
|SU2 binary restart                 |restart.dat                        |
|Paraview                           |vol_solution.vtu                   |
|Paraview surface                   |surface.vtu                        |
+-----------------------------------------------------------------------+
+--------------------------------------------------------------------------------------------------------------------+
|  Inner_Iter|    rms[Rho]|   rms[RhoU]|   rms[RhoV]|   rms[RhoE]|          CD|          CL|         CMz|   LinSolRes|
+--------------------------------------------------------------------------------------------------------------------+
|        6025|  -10.398528|  -10.186602|  -10.777398|  -10.756424|    0.007723|   -0.041349|    0.068923|   -0.655210|
|        6050|  -10.400455|  -10.193252|  -10.783650|  -10.762767|    0.007723|   -0.041347|    0.068923|   -0.656212|
|        6075|  -10.402392|  -10.199908|  -10.789936|  -10.769337|    0.007723|   -0.041345|    0.068924|   -0.656825|
|        6100|  -10.404326|  -10.206574|  -10.796210|  -10.775700|    0.007723|   -0.041343|    0.068924|   -0.657913|
+-----------------------------------------------------------------------+
|        File Writing Summary       |              Filename             |
+-----------------------------------------------------------------------+
|SU2 binary restart                 |restart.dat                        |
|Paraview                           |vol_solution.vtu                   |
|Paraview surface                   |surface.vtu                        |
+-----------------------------------------------------------------------+
+--------------------------------------------------------------------------------------------------------------------+
|  Inner_Iter|    rms[Rho]|   rms[RhoU]|   rms[RhoV]|   rms[RhoE]|          CD|          CL|         CMz|   LinSolRes|
+--------------------------------------------------------------------------------------------------------------------+
|        6125|  -10.406271|  -10.213244|  -10.802532|  -10.782340|    0.007724|   -0.041341|    0.068925|   -0.658668|
|        6150|  -10.408210|  -10.219922|  -10.808834|  -10.788684|    0.007724|   -0.041339|    0.068925|   -0.659684|
|        6175|  -10.410156|  -10.226603|  -10.815182|  -10.795133|    0.007724|   -0.041338|    0.068926|   -0.660549|
|        6200|  -10.412109|  -10.233296|  -10.821533|  -10.801729|    0.007724|   -0.041336|    0.068926|   -0.661524|
+-----------------------------------------------------------------------+
|        File Writing Summary       |              Filename             |
+-----------------------------------------------------------------------+
|SU2 binary restart                 |restart.dat                        |
|Paraview                           |vol_solution.vtu                   |
|Paraview surface                   |surface.vtu                        |
+-----------------------------------------------------------------------+
+--------------------------------------------------------------------------------------------------------------------+
|  Inner_Iter|    rms[Rho]|   rms[RhoU]|   rms[RhoV]|   rms[RhoE]|          CD|          CL|         CMz|   LinSolRes|
+--------------------------------------------------------------------------------------------------------------------+
|        6225|  -10.414063|  -10.239992|  -10.827930|  -10.808270|    0.007724|   -0.041334|    0.068927|   -0.662611|
|        6250|  -10.416021|  -10.246697|  -10.834329|  -10.814851|    0.007724|   -0.041332|    0.068927|   -0.663481|
|        6275|  -10.417976|  -10.253409|  -10.840729|  -10.821215|    0.007724|   -0.041331|    0.068928|   -0.664718|
|        6300|  -10.419944|  -10.260128|  -10.847161|  -10.827933|    0.007724|   -0.041329|    0.068928|   -0.665615|
+-----------------------------------------------------------------------+
|        File Writing Summary       |              Filename             |
+-----------------------------------------------------------------------+
|SU2 binary restart                 |restart.dat                        |
|Paraview                           |vol_solution.vtu                   |
|Paraview surface                   |surface.vtu                        |
+-----------------------------------------------------------------------+
+--------------------------------------------------------------------------------------------------------------------+
|  Inner_Iter|    rms[Rho]|   rms[RhoU]|   rms[RhoV]|   rms[RhoE]|          CD|          CL|         CMz|   LinSolRes|
+--------------------------------------------------------------------------------------------------------------------+
|        6325|  -10.421907|  -10.266854|  -10.853598|  -10.834331|    0.007724|   -0.041327|    0.068929|   -0.666902|
|        6350|  -10.423879|  -10.273585|  -10.860083|  -10.840985|    0.007724|   -0.041326|    0.068929|   -0.667815|
|        6375|  -10.425851|  -10.280328|  -10.866556|  -10.847535|    0.007724|   -0.041324|    0.068930|   -0.669148|
|        6400|  -10.427831|  -10.287074|  -10.873085|  -10.854252|    0.007724|   -0.041322|    0.068930|   -0.670283|
+-----------------------------------------------------------------------+
|        File Writing Summary       |              Filename             |
+-----------------------------------------------------------------------+
|SU2 binary restart                 |restart.dat                        |
|Paraview                           |vol_solution.vtu                   |
|Paraview surface                   |surface.vtu                        |
+-----------------------------------------------------------------------+
+--------------------------------------------------------------------------------------------------------------------+
|  Inner_Iter|    rms[Rho]|   rms[RhoU]|   rms[RhoV]|   rms[RhoE]|          CD|          CL|         CMz|   LinSolRes|
+--------------------------------------------------------------------------------------------------------------------+
|        6425|  -10.429808|  -10.293831|  -10.879596|  -10.860768|    0.007724|   -0.041321|    0.068931|   -0.671500|
|        6450|  -10.431789|  -10.300591|  -10.886137|  -10.867261|    0.007724|   -0.041319|    0.068931|   -0.672774|
|        6475|  -10.433778|  -10.307364|  -10.892689|  -10.874017|    0.007724|   -0.041318|    0.068931|   -0.673959|
|        6500|  -10.435766|  -10.314141|  -10.899274|  -10.880580|    0.007724|   -0.041316|    0.068932|   -0.675418|
+-----------------------------------------------------------------------+
|        File Writing Summary       |              Filename             |
+-----------------------------------------------------------------------+
|SU2 binary restart                 |restart.dat                        |
|Paraview                           |vol_solution.vtu                   |
|Paraview surface                   |surface.vtu                        |
+-----------------------------------------------------------------------+
+--------------------------------------------------------------------------------------------------------------------+
|  Inner_Iter|    rms[Rho]|   rms[RhoU]|   rms[RhoV]|   rms[RhoE]|          CD|          CL|         CMz|   LinSolRes|
+--------------------------------------------------------------------------------------------------------------------+
|        6525|  -10.437760|  -10.320927|  -10.905881|  -10.887328|    0.007724|   -0.041315|    0.068932|   -0.676521|
|        6550|  -10.439753|  -10.327723|  -10.912478|  -10.893845|    0.007724|   -0.041313|    0.068933|   -0.678108|
|        6575|  -10.441756|  -10.334523|  -10.919118|  -10.900673|    0.007724|   -0.041312|    0.068933|   -0.679341|
|        6600|  -10.443754|  -10.341334|  -10.925744|  -10.907173|    0.007724|   -0.041311|    0.068933|   -0.680883|
+-----------------------------------------------------------------------+
|        File Writing Summary       |              Filename             |
+-----------------------------------------------------------------------+
|SU2 binary restart                 |restart.dat                        |
|Paraview                           |vol_solution.vtu                   |
|Paraview surface                   |surface.vtu                        |
+-----------------------------------------------------------------------+
+--------------------------------------------------------------------------------------------------------------------+
|  Inner_Iter|    rms[Rho]|   rms[RhoU]|   rms[RhoV]|   rms[RhoE]|          CD|          CL|         CMz|   LinSolRes|
+--------------------------------------------------------------------------------------------------------------------+
|        6625|  -10.445759|  -10.348148|  -10.932418|  -10.913854|    0.007724|   -0.041309|    0.068934|   -0.682190|
|        6650|  -10.447769|  -10.354975|  -10.939086|  -10.920605|    0.007724|   -0.041308|    0.068934|   -0.683727|
|        6675|  -10.449781|  -10.361806|  -10.945806|  -10.927346|    0.007724|   -0.041306|    0.068935|   -0.685295|
|        6700|  -10.451796|  -10.368647|  -10.952524|  -10.934083|    0.007724|   -0.041305|    0.068935|   -0.686688|
+-----------------------------------------------------------------------+
|        File Writing Summary       |              Filename             |
+-----------------------------------------------------------------------+
|SU2 binary restart                 |restart.dat                        |
|Paraview                           |vol_solution.vtu                   |
|Paraview surface                   |surface.vtu                        |
+-----------------------------------------------------------------------+
+--------------------------------------------------------------------------------------------------------------------+
|  Inner_Iter|    rms[Rho]|   rms[RhoU]|   rms[RhoV]|   rms[RhoE]|          CD|          CL|         CMz|   LinSolRes|
+--------------------------------------------------------------------------------------------------------------------+
|        6725|  -10.453811|  -10.375495|  -10.959248|  -10.940638|    0.007724|   -0.041304|    0.068935|   -0.688417|
|        6750|  -10.455835|  -10.382351|  -10.966002|  -10.947536|    0.007724|   -0.041303|    0.068936|   -0.689850|
|        6775|  -10.457856|  -10.389215|  -10.972762|  -10.954110|    0.007724|   -0.041301|    0.068936|   -0.691651|
|        6800|  -10.459885|  -10.396086|  -10.979570|  -10.960947|    0.007724|   -0.041300|    0.068936|   -0.693077|
+-----------------------------------------------------------------------+
|        File Writing Summary       |              Filename             |
+-----------------------------------------------------------------------+
|SU2 binary restart                 |restart.dat                        |
|Paraview                           |vol_solution.vtu                   |
|Paraview surface                   |surface.vtu                        |
+-----------------------------------------------------------------------+
+--------------------------------------------------------------------------------------------------------------------+
|  Inner_Iter|    rms[Rho]|   rms[RhoU]|   rms[RhoV]|   rms[RhoE]|          CD|          CL|         CMz|   LinSolRes|
+--------------------------------------------------------------------------------------------------------------------+
|        6825|  -10.461915|  -10.402969|  -10.986363|  -10.967684|    0.007724|   -0.041299|    0.068937|   -0.694935|
|        6850|  -10.463950|  -10.409856|  -10.993211|  -10.974564|    0.007724|   -0.041298|    0.068937|   -0.696620|
|        6875|  -10.465986|  -10.416754|  -11.000042|  -10.981277|    0.007724|   -0.041297|    0.068937|   -0.698327|
|        6900|  -10.466438|  -10.423439|  -10.993611|  -10.899610|    0.007724|   -0.041295|    0.068938|   -0.688662|
+-----------------------------------------------------------------------+
|        File Writing Summary       |              Filename             |
+-----------------------------------------------------------------------+
|SU2 binary restart                 |restart.dat                        |
|Paraview                           |vol_solution.vtu                   |
|Paraview surface                   |surface.vtu                        |
+-----------------------------------------------------------------------+
+--------------------------------------------------------------------------------------------------------------------+
|  Inner_Iter|    rms[Rho]|   rms[RhoU]|   rms[RhoV]|   rms[RhoE]|          CD|          CL|         CMz|   LinSolRes|
+--------------------------------------------------------------------------------------------------------------------+
|        6925|  -10.470605|  -10.431253|  -11.015149|  -11.001028|    0.007724|   -0.041294|    0.068938|   -0.696913|
|        6950|  -10.472105|  -10.438295|  -11.023023|  -11.001567|    0.007724|   -0.041293|    0.068938|   -0.704536|
|        6975|  -10.474417|  -10.445149|  -11.028729|  -11.009200|    0.007724|   -0.041292|    0.068938|   -0.706279|
|        7000|  -10.476178|  -10.452207|  -11.034361|  -10.995960|    0.007724|   -0.041291|    0.068939|   -0.756944|
+-----------------------------------------------------------------------+
|        File Writing Summary       |              Filename             |
+-----------------------------------------------------------------------+
|SU2 binary restart                 |restart.dat                        |
|Paraview                           |vol_solution.vtu                   |
|Paraview surface                   |surface.vtu                        |
+-----------------------------------------------------------------------+
+--------------------------------------------------------------------------------------------------------------------+
|  Inner_Iter|    rms[Rho]|   rms[RhoU]|   rms[RhoV]|   rms[RhoE]|          CD|          CL|         CMz|   LinSolRes|
+--------------------------------------------------------------------------------------------------------------------+
|        7025|  -10.479111|  -10.459312|  -11.043882|  -11.054830|    0.007724|   -0.041290|    0.068939|   -0.581169|
|        7031|  -10.478647|  -10.460655|  -11.033386|  -10.980160|    0.007724|   -0.041289|    0.068939|   -0.566080|

----------------------------- Solver Exit -------------------------------
All convergence criteria satisfied.
+-----------------------------------------------------------------------+
|      Convergence Field     |     Value    |   Criterion  |  Converged |
+-----------------------------------------------------------------------+
|                  Cauchy[CL]|   4.99864e-07|       < 5e-07|         Yes|
+-----------------------------------------------------------------------+
-------------------------------------------------------------------------
+-----------------------------------------------------------------------+
|        File Writing Summary       |              Filename             |
+-----------------------------------------------------------------------+
|SU2 binary restart                 |restart.dat                        |
|Paraview                           |vol_solution.vtu                   |
|Paraview surface                   |surface.vtu                        |
+-----------------------------------------------------------------------+

------------------------- Solver Postprocessing -------------------------
Deleted CNumerics container.
Deleted CIntegration container.
Deleted CSolver container.
Deleted CIteration container.
Deleted CInterface container.
Deleted CGeometry container.
Deleted CFreeFormDefBox class.
Deleted CSurfaceMovement class.
Deleted CVolumetricMovement class.
Deleted CConfig container.
Deleted nInst container.
Deleted COutput class.
-------------------------------------------------------------------------

------------------------- Exit Success (SU2_CFD) ------------------------

