WARNING: The current SST-1994m model is inconsistent with literature. We recommend using the SST-2003m model.
In SU2 v8 the 2003m model will become default, and the inconsistency will be fixed.

-------------------------------------------------------------------------
|    ___ _   _ ___                                                      |
|   / __| | | |_  )   Release 7.4.0 "Blackbird"                         |
|   \__ \ |_| |/ /                                                      |
|   |___/\___//___|   Suite (Computational Fluid Dynamics Code)         |
|                                                                       |
-------------------------------------------------------------------------
| SU2 Project Website: https://su2code.github.io                        |
|                                                                       |
| The SU2 Project is maintained by the SU2 Foundation                   |
| (http://su2foundation.org)                                            |
-------------------------------------------------------------------------
| Copyright 2012-2022, SU2 Contributors                                 |
|                                                                       |
| SU2 is free software; you can redistribute it and/or                  |
| modify it under the terms of the GNU Lesser General Public            |
| License as published by the Free Software Foundation; either          |
| version 2.1 of the License, or (at your option) any later version.    |
|                                                                       |
| SU2 is distributed in the hope that it will be useful,                |
| but WITHOUT ANY WARRANTY; without even the implied warranty of        |
| MERCHANTABILITY or FITNESS FOR A PARTICULAR PURPOSE. See the GNU      |
| Lesser General Public License for more details.                       |
|                                                                       |
| You should have received a copy of the GNU Lesser General Public      |
| License along with SU2. If not, see <http://www.gnu.org/licenses/>.   |
-------------------------------------------------------------------------
WARNING: The current SST-1994m model is inconsistent with literature. We recommend using the SST-2003m model.
In SU2 v8 the 2003m model will become default, and the inconsistency will be fixed.

Parsing config file for zone 0
WARNING: The current SST-1994m model is inconsistent with literature. We recommend using the SST-2003m model.
In SU2 v8 the 2003m model will become default, and the inconsistency will be fixed.

----------------- Physical Case Definition ( Zone 0 ) -------------------
Compressible RANS equations.
Turbulence model: Menter's k-omega SST-1994m with no production modification.
Hybrid RANS/LES: No Hybrid RANS/LES
Mach number: 0.21.
Angle of attack (AoA): -4 deg, and angle of sideslip (AoS): 0 deg.
Reynolds number: 1.28186e+07. Reference length 2.62.
Reading and writing binary SU2 native restart files.
Read flow solution from: solution_flow.
Non-Dimensional simulation (V=Mach, Rho=1.0, T=1.0 at the farfield).
The reference area is 2.62 m^2.
The semi-span will be computed using the max y(3D) value.
The reference length is 2.62 m.
Reference origin for moment evaluation is (0, 0, 0).
Surface(s) where the force coefficients are evaluated: wall.

Surface(s) plotted in the output file: wall.
Input mesh file name: su2meshEx.su2

--------------- Space Numerical Integration ( Zone 0 ) ------------------
Roe (with entropy fix = 1e-05) solver for the flow inviscid terms.
Standard Roe without low-dissipation function.
Second order integration in space, with slope limiter.
Van Albada slope-limiting method implemented by edges.
Scalar upwind solver for the turbulence model.
First order integration in space.
Average of gradients with correction (viscous flow terms).
Average of gradients with correction (viscous turbulence terms).
Gradient for upwind reconstruction: Green-Gauss.
Gradient for viscous and source terms: Green-Gauss.

--------------- Time Numerical Integration  ( Zone 0 ) ------------------
Local time stepping (steady state simulation).
Euler implicit method for the flow equations.
FGMRES is used for solving the linear system.
Using a ILU(0) preconditioning.
Convergence criteria of the linear solver: 0.2.
Max number of linear iterations: 4.
CFL adaptation. Factor down: 0.1, factor up: 1.2,
                lower limit: 25, upper limit: 1000,
                acceptable linear residual: 0.001.
Courant-Friedrichs-Lewy number:       25
Euler implicit time integration for the turbulence model.

------------------ Convergence Criteria  ( Zone 0 ) ---------------------
Maximum number of solver subiterations: 25000.
Begin convergence monitoring at iteration 10.
Residual minimum value: 1e-11.5.
Cauchy series min. value: 5e-07.
Number of Cauchy elements: 500.
Begin windowed time average at iteration 0.

-------------------- Output Information ( Zone 0 ) ----------------------
File writing frequency: 
+------------------------------------+
|                     File| Frequency|
+------------------------------------+
|                  RESTART|       100|
|                 PARAVIEW|       100|
|         SURFACE_PARAVIEW|       100|
+------------------------------------+
Writing the convergence history file every 1 inner iterations.
Writing the screen convergence history every 25 inner iterations.
The tabular file format is CSV (.csv).
Convergence history file name: history.
Forces breakdown file name: forces_breakdown.dat.
Surface file name: surface.
Volume file name: vol_solution.
Restart file name: restart.dat.

------------- Config File Boundary Information ( Zone 0 ) ---------------
+-----------------------------------------------------------------------+
|                        Marker Type|                        Marker Name|
+-----------------------------------------------------------------------+
|                          Far-field|                          far-field|
+-----------------------------------------------------------------------+
|                     Heat flux wall|                               wall|
+-----------------------------------------------------------------------+

-------------------- Output Preprocessing ( Zone 0 ) --------------------

WARNING: SURFACE_PRESSURE_DROP can only be computed for at least 2 surfaces (outlet, inlet, ...)

  Info: Ignoring the following screen output fields:
  RMS_NU_TILDE
Screen output fields: INNER_ITER, RMS_DENSITY, RMS_MOMENTUM-X, RMS_MOMENTUM-Y, RMS_ENERGY, DRAG, LIFT, MOMENT_Z, LINSOL_RESIDUAL
History output group(s): ITER, RMS_RES, AERO_COEFF
Convergence field(s): LIFT
Warning: No (valid) fields chosen for time convergence monitoring. Time convergence monitoring inactive.
Volume output fields: COORDINATES, SOLUTION, PRIMITIVE

------------------- Geometry Preprocessing ( Zone 0 ) -------------------
Two dimensional problem.
66015 grid points before partitioning.
65610 volume elements before partitioning.
2 surface markers.
405 boundary elements in index 0 (Marker = far-field).
405 boundary elements in index 1 (Marker = wall).
Executing the partitioning functions.
Building the graph adjacency structure.
Calling ParMETIS... graph partitioning complete (888 edge cuts).
Distributing ParMETIS coloring.
Rebalancing vertices.
Rebalancing volume element connectivity.
Rebalancing markers and surface elements.
67791 vertices including ghost points. 
66494 interior elements including halo cells. 
66494 quadrilaterals.
Establishing MPI communication patterns.
Setting point connectivity.
Renumbering points (Reverse Cuthill McKee Ordering).
Recomputing point connectivity.
Setting element connectivity.
Checking the numerical grid orientation.
All volume elements are correctly orientend.
All surface elements are correctly orientend.
Identifying edges and vertices.
Setting the control volume structure.
Area of the computational grid: 177681.
Searching for the closest normal neighbors to the surfaces.
Storing a mapping from global to local point index.
Compute the surface curvature.
Max K: 1084.38. Mean K: 3.59037. Standard deviation K: 49.7608.
Checking for periodicity.
Computing mesh quality statistics for the dual control volumes.
+--------------------------------------------------------------+
|           Mesh Quality Metric|        Minimum|        Maximum|
+--------------------------------------------------------------+
|    Orthogonality Angle (deg.)|         82.757|             90|
|     CV Face Area Aspect Ratio|        1.00372|        11629.9|
|           CV Sub-Volume Ratio|              1|        2.23945|
+--------------------------------------------------------------+
Finding max control volume width.
Communicating number of neighbors.
Wetted area = 5.32649 m.
Area projection in the x-plane = 0.29702 m, y-plane = 2.61984 m.
Max. coordinate in the x-direction = 2.62 m, y-direction = 0.165086 m.
Min. coordinate in the x-direction = 0 m, y-direction = -0.119236 m.
Computing wall distances.

-------------------- Solver Preprocessing ( Zone 0 ) --------------------
Viscous flow: Computing pressure using the ideal gas law
based on the free-stream temperature and a density computed
from the Reynolds number.
Force coefficients computed using free-stream values.

-- Models:
+------------------------------------------------------------------------------+
|          Viscosity Model|        Conductivity Model|              Fluid Model|
+------------------------------------------------------------------------------+
|               SUTHERLAND|          CONSTANT_PRANDTL|             STANDARD_AIR|
+------------------------------------------------------------------------------+
-- Fluid properties:
+------------------------------------------------------------------------------+
|                  Name|    Dim. value|    Ref. value|      Unit|Non-dim. value|
+------------------------------------------------------------------------------+
|        Ref. Viscosity|     1.716e-05|       416.883|   N.s/m^2|   4.11626e-08|
|      Sutherland Temp.|        273.15|        288.16|         K|      0.947911|
|     Sutherland Const.|         110.4|        288.16|         K|       0.38312|
+------------------------------------------------------------------------------+
|        Prandtl (Lam.)|             -|             -|         -|          0.72|
|       Prandtl (Turb.)|             -|             -|         -|           0.9|
+------------------------------------------------------------------------------+
|          Gas Constant|       287.058|       401.881|  N.m/kg.K|      0.714286|
|      Spec. Heat Ratio|             -|             -|         -|           1.4|
+------------------------------------------------------------------------------+
-- Initial and free-stream conditions:
+------------------------------------------------------------------------------+
|                  Name|    Dim. value|    Ref. value|      Unit|Non-dim. value|
+------------------------------------------------------------------------------+
|       Static Pressure|        101333|        141867|        Pa|      0.714286|
|               Density|       1.22504|       1.22504|    kg/m^3|             1|
|           Temperature|        288.16|        288.16|         K|             1|
|          Total Energy|        209369|        115806|   m^2/s^2|       1.80793|
|            Velocity-X|       71.2895|       340.303|       m/s|      0.209488|
|            Velocity-Y|      -4.98505|       340.303|       m/s|    -0.0146489|
|    Velocity Magnitude|       71.4636|       340.303|       m/s|          0.21|
+------------------------------------------------------------------------------+
|             Viscosity|   1.78935e-05|       416.883|   N.s/m^2|    4.2922e-08|
|          Conductivity|             -|        167537|   W/m^2.K|             -|
|     Turb. Kin. Energy|       19.1514|        115806|   m^2/s^2|   0.000165375|
|     Spec. Dissipation|        131116|       340.303|       1/s|       385.292|
+------------------------------------------------------------------------------+
|           Mach Number|             -|             -|         -|          0.21|
|       Reynolds Number|             -|             -|         -|   1.28186e+07|
+------------------------------------------------------------------------------+
Initialize Jacobian structure (Navier-Stokes). MG level: 0.
Initialize Jacobian structure (SST model).

------------------- Numerics Preprocessing ( Zone 0 ) -------------------

----------------- Integration Preprocessing ( Zone 0 ) ------------------

------------------- Iteration Preprocessing ( Zone 0 ) ------------------
Euler/Navier-Stokes/RANS fluid iteration.

------------------------------ Begin Solver -----------------------------

Simulation Run using the Single-zone Driver
WARNING: SU2 was not compiled for an AVX-capable architecture.
+--------------------------------------------------------------------------------------------------------------------+
|  Inner_Iter|    rms[Rho]|   rms[RhoU]|   rms[RhoV]|   rms[RhoE]|          CD|          CL|         CMz|   LinSolRes|
+--------------------------------------------------------------------------------------------------------------------+
|           0|   -3.420406|   -3.725734|   -3.447808|   -3.016605|    0.003306|   -0.278154|    0.006355|   -0.797100|
|          25|   -5.243228|   -4.876511|   -4.767202|   -4.847341|   -0.001699|   -0.206802|    0.041657|   -0.664845|
|          50|   -5.858184|   -4.959415|   -5.088601|   -5.338145|    0.001900|   -0.222793|    0.024192|   -0.923356|
|          75|   -6.015119|   -5.091445|   -5.501348|   -5.529100|    0.002840|   -0.117100|    0.054061|   -0.664502|
|         100|   -6.297885|   -5.246983|   -5.805537|   -5.718772|    0.009238|   -0.143948|    0.037286|   -0.597494|
+-----------------------------------------------------------------------+
|        File Writing Summary       |              Filename             |
+-----------------------------------------------------------------------+
|SU2 binary restart                 |restart.dat                        |
|Paraview                           |vol_solution.vtu                   |
|Paraview surface                   |surface.vtu                        |
+-----------------------------------------------------------------------+
+--------------------------------------------------------------------------------------------------------------------+
|  Inner_Iter|    rms[Rho]|   rms[RhoU]|   rms[RhoV]|   rms[RhoE]|          CD|          CL|         CMz|   LinSolRes|
+--------------------------------------------------------------------------------------------------------------------+
|         125|   -6.532208|   -5.448423|   -5.988312|   -5.939871|    0.009229|   -0.185974|    0.027549|   -0.760504|
|         150|   -6.678022|   -5.755928|   -6.366677|   -6.171833|    0.007111|   -0.177467|    0.032776|   -0.636202|
|         175|   -6.967556|   -6.060859|   -6.527798|   -6.476957|    0.007184|   -0.164649|    0.036545|   -0.668814|
|         200|   -7.359568|   -6.369759|   -6.934910|   -6.843556|    0.007687|   -0.160980|    0.037341|   -0.672621|
+-----------------------------------------------------------------------+
|        File Writing Summary       |              Filename             |
+-----------------------------------------------------------------------+
|SU2 binary restart                 |restart.dat                        |
|Paraview                           |vol_solution.vtu                   |
|Paraview surface                   |surface.vtu                        |
+-----------------------------------------------------------------------+
+--------------------------------------------------------------------------------------------------------------------+
|  Inner_Iter|    rms[Rho]|   rms[RhoU]|   rms[RhoV]|   rms[RhoE]|          CD|          CL|         CMz|   LinSolRes|
+--------------------------------------------------------------------------------------------------------------------+
|         225|   -7.346905|   -6.623644|   -7.081957|   -6.895539|    0.007757|   -0.161681|    0.037160|   -0.715729|
|         250|   -7.696109|   -6.800007|   -7.266137|   -7.215635|    0.007742|   -0.161835|    0.037229|   -0.697004|
|         275|   -7.987023|   -6.948441|   -7.530458|   -7.443679|    0.007716|   -0.161350|    0.037439|   -0.807904|
|         300|   -8.126655|   -7.114103|   -7.662209|   -7.588791|    0.007698|   -0.160479|    0.037735|   -0.684829|
+-----------------------------------------------------------------------+
|        File Writing Summary       |              Filename             |
+-----------------------------------------------------------------------+
|SU2 binary restart                 |restart.dat                        |
|Paraview                           |vol_solution.vtu                   |
|Paraview surface                   |surface.vtu                        |
+-----------------------------------------------------------------------+
+--------------------------------------------------------------------------------------------------------------------+
|  Inner_Iter|    rms[Rho]|   rms[RhoU]|   rms[RhoV]|   rms[RhoE]|          CD|          CL|         CMz|   LinSolRes|
+--------------------------------------------------------------------------------------------------------------------+
|         325|   -8.222758|   -7.255702|   -7.727568|   -7.701076|    0.007706|   -0.160049|    0.037850|   -0.672574|
|         350|   -8.314336|   -7.378576|   -7.814963|   -7.810743|    0.007712|   -0.159609|    0.037991|   -0.680792|
|         375|   -8.442908|   -7.481167|   -7.955334|   -7.940017|    0.007732|   -0.159442|    0.038005|   -0.644093|
|         400|   -8.613410|   -7.585022|   -8.117340|   -8.080672|    0.007749|   -0.159298|    0.038052|   -0.638878|
+-----------------------------------------------------------------------+
|        File Writing Summary       |              Filename             |
+-----------------------------------------------------------------------+
|SU2 binary restart                 |restart.dat                        |
|Paraview                           |vol_solution.vtu                   |
|Paraview surface                   |surface.vtu                        |
+-----------------------------------------------------------------------+
+--------------------------------------------------------------------------------------------------------------------+
|  Inner_Iter|    rms[Rho]|   rms[RhoU]|   rms[RhoV]|   rms[RhoE]|          CD|          CL|         CMz|   LinSolRes|
+--------------------------------------------------------------------------------------------------------------------+
|         425|   -8.713481|   -7.685598|   -8.225041|   -8.164517|    0.007754|   -0.159172|    0.038090|   -0.658622|
|         450|   -8.732996|   -7.774226|   -8.262252|   -8.210603|    0.007761|   -0.159168|    0.038080|   -0.657282|
|         475|   -8.753496|   -7.848449|   -8.293297|   -8.264201|    0.007761|   -0.159093|    0.038107|   -0.623016|
|         500|   -8.814789|   -7.896367|   -8.364108|   -8.342897|    0.007762|   -0.159057|    0.038108|   -0.593493|
+-----------------------------------------------------------------------+
|        File Writing Summary       |              Filename             |
+-----------------------------------------------------------------------+
|SU2 binary restart                 |restart.dat                        |
|Paraview                           |vol_solution.vtu                   |
|Paraview surface                   |surface.vtu                        |
+-----------------------------------------------------------------------+
+--------------------------------------------------------------------------------------------------------------------+
|  Inner_Iter|    rms[Rho]|   rms[RhoU]|   rms[RhoV]|   rms[RhoE]|          CD|          CL|         CMz|   LinSolRes|
+--------------------------------------------------------------------------------------------------------------------+
|         525|   -8.897809|   -7.953392|   -8.478601|   -8.441743|    0.007760|   -0.159034|    0.038104|   -0.584801|
|         550|   -9.018121|   -8.028723|   -8.615174|   -8.557506|    0.007756|   -0.158957|    0.038123|   -0.609092|
|         575|   -9.144361|   -8.097550|   -8.725867|   -8.656502|    0.007758|   -0.158947|    0.038102|   -0.629989|
|         600|   -9.203899|   -8.180524|   -8.769614|   -8.714508|    0.007758|   -0.158937|    0.038088|   -0.641093|
+-----------------------------------------------------------------------+
|        File Writing Summary       |              Filename             |
+-----------------------------------------------------------------------+
|SU2 binary restart                 |restart.dat                        |
|Paraview                           |vol_solution.vtu                   |
|Paraview surface                   |surface.vtu                        |
+-----------------------------------------------------------------------+
+--------------------------------------------------------------------------------------------------------------------+
|  Inner_Iter|    rms[Rho]|   rms[RhoU]|   rms[RhoV]|   rms[RhoE]|          CD|          CL|         CMz|   LinSolRes|
+--------------------------------------------------------------------------------------------------------------------+
|         625|   -9.220355|   -8.279032|   -8.784143|   -8.745018|    0.007757|   -0.158920|    0.038076|   -0.669435|
|         650|   -9.251074|   -8.362183|   -8.811203|   -8.791901|    0.007761|   -0.158958|    0.038040|   -0.689134|
|         675|   -9.310400|   -8.412351|   -8.869498|   -8.865018|    0.007762|   -0.158987|    0.038017|   -0.688670|
|         700|   -9.357661|   -8.436526|   -8.951306|   -8.923338|    0.007763|   -0.159026|    0.037991|   -0.680601|
+-----------------------------------------------------------------------+
|        File Writing Summary       |              Filename             |
+-----------------------------------------------------------------------+
|SU2 binary restart                 |restart.dat                        |
|Paraview                           |vol_solution.vtu                   |
|Paraview surface                   |surface.vtu                        |
+-----------------------------------------------------------------------+
+--------------------------------------------------------------------------------------------------------------------+
|  Inner_Iter|    rms[Rho]|   rms[RhoU]|   rms[RhoV]|   rms[RhoE]|          CD|          CL|         CMz|   LinSolRes|
+--------------------------------------------------------------------------------------------------------------------+
|         725|   -9.410788|   -8.453644|   -9.047070|   -8.977424|    0.007765|   -0.159084|    0.037960|   -0.673570|
|         750|   -9.452183|   -8.480581|   -9.147403|   -9.027024|    0.007765|   -0.159126|    0.037941|   -0.667972|
|         775|   -9.483698|   -8.527050|   -9.244925|   -9.079879|    0.007766|   -0.159184|    0.037914|   -0.665232|
|         800|   -9.529579|   -8.585773|   -9.330346|   -9.149760|    0.007767|   -0.159237|    0.037892|   -0.667331|
+-----------------------------------------------------------------------+
|        File Writing Summary       |              Filename             |
+-----------------------------------------------------------------------+
|SU2 binary restart                 |restart.dat                        |
|Paraview                           |vol_solution.vtu                   |
|Paraview surface                   |surface.vtu                        |
+-----------------------------------------------------------------------+
+--------------------------------------------------------------------------------------------------------------------+
|  Inner_Iter|    rms[Rho]|   rms[RhoU]|   rms[RhoV]|   rms[RhoE]|          CD|          CL|         CMz|   LinSolRes|
+--------------------------------------------------------------------------------------------------------------------+
|         825|   -9.567707|   -8.645714|   -9.393462|   -9.218059|    0.007767|   -0.159280|    0.037874|   -0.675852|
|         850|   -9.599882|   -8.698241|   -9.421490|   -9.272896|    0.007768|   -0.159334|    0.037851|   -0.683046|
|         875|   -9.628447|   -8.739917|   -9.414238|   -9.315686|    0.007768|   -0.159379|    0.037834|   -0.679846|
|         900|   -9.638812|   -8.771121|   -9.400839|   -9.329971|    0.007769|   -0.159421|    0.037816|   -0.665265|
+-----------------------------------------------------------------------+
|        File Writing Summary       |              Filename             |
+-----------------------------------------------------------------------+
|SU2 binary restart                 |restart.dat                        |
|Paraview                           |vol_solution.vtu                   |
|Paraview surface                   |surface.vtu                        |
+-----------------------------------------------------------------------+
+--------------------------------------------------------------------------------------------------------------------+
|  Inner_Iter|    rms[Rho]|   rms[RhoU]|   rms[RhoV]|   rms[RhoE]|          CD|          CL|         CMz|   LinSolRes|
+--------------------------------------------------------------------------------------------------------------------+
|         925|   -9.643812|   -8.791593|   -9.373064|   -9.332422|    0.007771|   -0.159471|    0.037796|   -0.643588|
|         950|   -9.647356|   -8.805328|   -9.353373|   -9.332992|    0.007772|   -0.159512|    0.037780|   -0.622703|
|         975|   -9.647429|   -8.812429|   -9.350980|   -9.329742|    0.007774|   -0.159556|    0.037762|   -0.609688|
|        1000|   -9.657989|   -8.815524|   -9.356814|   -9.338676|    0.007776|   -0.159602|    0.037744|   -0.602122|
+-----------------------------------------------------------------------+
|        File Writing Summary       |              Filename             |
+-----------------------------------------------------------------------+
|SU2 binary restart                 |restart.dat                        |
|Paraview                           |vol_solution.vtu                   |
|Paraview surface                   |surface.vtu                        |
+-----------------------------------------------------------------------+
+--------------------------------------------------------------------------------------------------------------------+
|  Inner_Iter|    rms[Rho]|   rms[RhoU]|   rms[RhoV]|   rms[RhoE]|          CD|          CL|         CMz|   LinSolRes|
+--------------------------------------------------------------------------------------------------------------------+
|        1025|   -9.667730|   -8.819699|   -9.370500|   -9.347320|    0.007778|   -0.159643|    0.037728|   -0.599485|
|        1050|   -9.677708|   -8.826106|   -9.387398|   -9.355782|    0.007781|   -0.159688|    0.037711|   -0.600868|
|        1075|   -9.695139|   -8.833756|   -9.406394|   -9.372320|    0.007783|   -0.159731|    0.037695|   -0.602876|
|        1100|   -9.708002|   -8.842511|   -9.425401|   -9.384640|    0.007785|   -0.159771|    0.037679|   -0.606493|
+-----------------------------------------------------------------------+
|        File Writing Summary       |              Filename             |
+-----------------------------------------------------------------------+
|SU2 binary restart                 |restart.dat                        |
|Paraview                           |vol_solution.vtu                   |
|Paraview surface                   |surface.vtu                        |
+-----------------------------------------------------------------------+
+--------------------------------------------------------------------------------------------------------------------+
|  Inner_Iter|    rms[Rho]|   rms[RhoU]|   rms[RhoV]|   rms[RhoE]|          CD|          CL|         CMz|   LinSolRes|
+--------------------------------------------------------------------------------------------------------------------+
|        1125|   -9.721673|   -8.853087|   -9.440304|   -9.396682|    0.007788|   -0.159814|    0.037663|   -0.610937|
|        1150|   -9.738378|   -8.864332|   -9.453391|   -9.411883|    0.007790|   -0.159854|    0.037649|   -0.614311|
|        1175|   -9.750875|   -8.875074|   -9.466639|   -9.423072|    0.007792|   -0.159892|    0.037634|   -0.617939|
|        1200|   -9.765192|   -8.886023|   -9.476995|   -9.435610|    0.007795|   -0.159931|    0.037619|   -0.621835|
+-----------------------------------------------------------------------+
|        File Writing Summary       |              Filename             |
+-----------------------------------------------------------------------+
|SU2 binary restart                 |restart.dat                        |
|Paraview                           |vol_solution.vtu                   |
|Paraview surface                   |surface.vtu                        |
+-----------------------------------------------------------------------+
+--------------------------------------------------------------------------------------------------------------------+
|  Inner_Iter|    rms[Rho]|   rms[RhoU]|   rms[RhoV]|   rms[RhoE]|          CD|          CL|         CMz|   LinSolRes|
+--------------------------------------------------------------------------------------------------------------------+
|        1225|   -9.780318|   -8.897342|   -9.487428|   -9.449106|    0.007797|   -0.159967|    0.037606|   -0.625671|
|        1250|   -9.793642|   -8.908273|   -9.499531|   -9.461061|    0.007800|   -0.160003|    0.037593|   -0.630086|
|        1275|   -9.809030|   -8.919008|   -9.511624|   -9.475431|    0.007802|   -0.160038|    0.037580|   -0.634643|
|        1300|   -9.823546|   -8.929978|   -9.525423|   -9.489339|    0.007805|   -0.160071|    0.037568|   -0.639959|
+-----------------------------------------------------------------------+
|        File Writing Summary       |              Filename             |
+-----------------------------------------------------------------------+
|SU2 binary restart                 |restart.dat                        |
|Paraview                           |vol_solution.vtu                   |
|Paraview surface                   |surface.vtu                        |
+-----------------------------------------------------------------------+
+--------------------------------------------------------------------------------------------------------------------+
|  Inner_Iter|    rms[Rho]|   rms[RhoU]|   rms[RhoV]|   rms[RhoE]|          CD|          CL|         CMz|   LinSolRes|
+--------------------------------------------------------------------------------------------------------------------+
|        1325|   -9.838482|   -8.940928|   -9.540741|   -9.503537|    0.007807|   -0.160104|    0.037556|   -0.646539|
|        1350|   -9.855635|   -8.951677|   -9.557467|   -9.520264|    0.007809|   -0.160135|    0.037544|   -0.653665|
|        1375|   -9.871018|   -8.962428|   -9.575689|   -9.535616|    0.007812|   -0.160165|    0.037533|   -0.661979|
|        1400|   -9.887248|   -8.973338|   -9.593948|   -9.551631|    0.007814|   -0.160194|    0.037522|   -0.671417|
+-----------------------------------------------------------------------+
|        File Writing Summary       |              Filename             |
+-----------------------------------------------------------------------+
|SU2 binary restart                 |restart.dat                        |
|Paraview                           |vol_solution.vtu                   |
|Paraview surface                   |surface.vtu                        |
+-----------------------------------------------------------------------+
+--------------------------------------------------------------------------------------------------------------------+
|  Inner_Iter|    rms[Rho]|   rms[RhoU]|   rms[RhoV]|   rms[RhoE]|          CD|          CL|         CMz|   LinSolRes|
+--------------------------------------------------------------------------------------------------------------------+
|        1425|   -9.904430|   -8.984047|   -9.612699|   -9.568972|    0.007816|   -0.160222|    0.037512|   -0.681398|
|        1450|   -9.919698|   -8.994385|   -9.632033|   -9.584714|    0.007818|   -0.160248|    0.037503|   -0.692296|
|        1475|   -9.952846|   -9.004857|   -9.653316|   -9.624328|    0.007820|   -0.160274|    0.037493|   -0.573986|
|        1500|   -9.906640|   -9.015219|   -9.659719|   -9.557717|    0.007822|   -0.160299|    0.037484|   -0.698417|
+-----------------------------------------------------------------------+
|        File Writing Summary       |              Filename             |
+-----------------------------------------------------------------------+
|SU2 binary restart                 |restart.dat                        |
|Paraview                           |vol_solution.vtu                   |
|Paraview surface                   |surface.vtu                        |
+-----------------------------------------------------------------------+
+--------------------------------------------------------------------------------------------------------------------+
|  Inner_Iter|    rms[Rho]|   rms[RhoU]|   rms[RhoV]|   rms[RhoE]|          CD|          CL|         CMz|   LinSolRes|
+--------------------------------------------------------------------------------------------------------------------+
|        1525|   -9.967137|   -9.025560|   -9.691913|   -9.635177|    0.007824|   -0.160323|    0.037475|   -0.730625|
|        1550|   -9.981939|   -9.034924|   -9.710364|   -9.650609|    0.007826|   -0.160345|    0.037467|   -0.743438|
|        1575|   -9.892387|   -9.043642|   -9.700750|   -9.532598|    0.007828|   -0.160366|    0.037459|   -0.770357|
|        1600|  -10.005722|   -9.055118|   -9.753376|   -9.675344|    0.007830|   -0.160389|    0.037451|   -0.782160|
+-----------------------------------------------------------------------+
|        File Writing Summary       |              Filename             |
+-----------------------------------------------------------------------+
|SU2 binary restart                 |restart.dat                        |
|Paraview                           |vol_solution.vtu                   |
|Paraview surface                   |surface.vtu                        |
+-----------------------------------------------------------------------+
+--------------------------------------------------------------------------------------------------------------------+
|  Inner_Iter|    rms[Rho]|   rms[RhoU]|   rms[RhoV]|   rms[RhoE]|          CD|          CL|         CMz|   LinSolRes|
+--------------------------------------------------------------------------------------------------------------------+
|        1625|  -10.026075|   -9.064712|   -9.776424|   -9.702988|    0.007832|   -0.160407|    0.037444|   -0.792912|
|        1650|  -10.037606|   -9.073092|   -9.796325|   -9.714629|    0.007834|   -0.160425|    0.037437|   -0.808970|
|        1675|  -10.054253|   -9.080691|   -9.814984|   -9.730663|    0.007835|   -0.160441|    0.037431|   -0.770334|
|        1700|  -10.042918|   -9.088599|   -9.831529|   -9.713261|    0.007837|   -0.160456|    0.037426|   -0.671169|
+-----------------------------------------------------------------------+
|        File Writing Summary       |              Filename             |
+-----------------------------------------------------------------------+
|SU2 binary restart                 |restart.dat                        |
|Paraview                           |vol_solution.vtu                   |
|Paraview surface                   |surface.vtu                        |
+-----------------------------------------------------------------------+
+--------------------------------------------------------------------------------------------------------------------+
|  Inner_Iter|    rms[Rho]|   rms[RhoU]|   rms[RhoV]|   rms[RhoE]|          CD|          CL|         CMz|   LinSolRes|
+--------------------------------------------------------------------------------------------------------------------+
|        1725|  -10.062111|   -9.096958|   -9.860845|   -9.740954|    0.007838|   -0.160470|    0.037420|   -0.837591|
|        1750|  -10.082441|   -9.104508|   -9.880637|   -9.764728|    0.007839|   -0.160483|    0.037415|   -0.821498|
|        1775|  -10.084442|   -9.111975|   -9.904731|   -9.770866|    0.007841|   -0.160495|    0.037411|   -0.894740|
|        1800|  -10.058227|   -9.118821|   -9.912029|   -9.733653|    0.007842|   -0.160507|    0.037406|   -0.725031|
+-----------------------------------------------------------------------+
|        File Writing Summary       |              Filename             |
+-----------------------------------------------------------------------+
|SU2 binary restart                 |restart.dat                        |
|Paraview                           |vol_solution.vtu                   |
|Paraview surface                   |surface.vtu                        |
+-----------------------------------------------------------------------+
+--------------------------------------------------------------------------------------------------------------------+
|  Inner_Iter|    rms[Rho]|   rms[RhoU]|   rms[RhoV]|   rms[RhoE]|          CD|          CL|         CMz|   LinSolRes|
+--------------------------------------------------------------------------------------------------------------------+
|        1825|  -10.073135|   -9.125427|   -9.934498|   -9.745721|    0.007843|   -0.160517|    0.037402|   -0.870351|
|        1850|  -10.108587|   -9.132782|   -9.976359|   -9.804105|    0.007844|   -0.160526|    0.037399|   -0.777246|
|        1875|  -10.098647|   -9.139577|   -9.990529|   -9.788941|    0.007845|   -0.160534|    0.037395|   -0.731010|
|        1900|  -10.093292|   -9.145946|   -9.996073|   -9.768935|    0.007846|   -0.160542|    0.037392|   -0.717045|
+-----------------------------------------------------------------------+
|        File Writing Summary       |              Filename             |
+-----------------------------------------------------------------------+
|SU2 binary restart                 |restart.dat                        |
|Paraview                           |vol_solution.vtu                   |
|Paraview surface                   |surface.vtu                        |
+-----------------------------------------------------------------------+
+--------------------------------------------------------------------------------------------------------------------+
|  Inner_Iter|    rms[Rho]|   rms[RhoU]|   rms[RhoV]|   rms[RhoE]|          CD|          CL|         CMz|   LinSolRes|
+--------------------------------------------------------------------------------------------------------------------+
|        1925|  -10.080624|   -9.151862|  -10.006308|   -9.745334|    0.007847|   -0.160548|    0.037390|   -0.712128|
|        1950|  -10.089852|   -9.158411|  -10.027958|   -9.759974|    0.007848|   -0.160555|    0.037387|   -0.727193|
|        1975|  -10.094250|   -9.165590|  -10.054136|   -9.771377|    0.007849|   -0.160561|    0.037384|   -0.777374|
|        2000|  -10.107191|   -9.176978|  -10.068786|   -9.787301|    0.007851|   -0.160569|    0.037381|   -0.635606|
+-----------------------------------------------------------------------+
|        File Writing Summary       |              Filename             |
+-----------------------------------------------------------------------+
|SU2 binary restart                 |restart.dat                        |
|Paraview                           |vol_solution.vtu                   |
|Paraview surface                   |surface.vtu                        |
+-----------------------------------------------------------------------+
+--------------------------------------------------------------------------------------------------------------------+
|  Inner_Iter|    rms[Rho]|   rms[RhoU]|   rms[RhoV]|   rms[RhoE]|          CD|          CL|         CMz|   LinSolRes|
+--------------------------------------------------------------------------------------------------------------------+
|        2025|  -10.122314|   -9.185966|  -10.107883|   -9.815382|    0.007852|   -0.160573|    0.037379|   -0.771146|
|        2050|  -10.132000|   -9.192070|  -10.125361|   -9.824098|    0.007853|   -0.160577|    0.037377|   -0.785172|
|        2075|  -10.134910|   -9.198238|  -10.139534|   -9.835298|    0.007854|   -0.160580|    0.037375|   -0.787638|
|        2100|  -10.139683|   -9.206931|  -10.160849|   -9.841508|    0.007855|   -0.160583|    0.037374|   -0.684802|
+-----------------------------------------------------------------------+
|        File Writing Summary       |              Filename             |
+-----------------------------------------------------------------------+
|SU2 binary restart                 |restart.dat                        |
|Paraview                           |vol_solution.vtu                   |
|Paraview surface                   |surface.vtu                        |
+-----------------------------------------------------------------------+
+--------------------------------------------------------------------------------------------------------------------+
|  Inner_Iter|    rms[Rho]|   rms[RhoU]|   rms[RhoV]|   rms[RhoE]|          CD|          CL|         CMz|   LinSolRes|
+--------------------------------------------------------------------------------------------------------------------+
|        2125|  -10.125004|   -9.216358|  -10.169763|   -9.818995|    0.007856|   -0.160585|    0.037372|   -0.687456|
|        2150|  -10.146725|   -9.225623|  -10.201460|   -9.857322|    0.007857|   -0.160586|    0.037371|   -0.802712|
|        2175|  -10.155936|   -9.231175|  -10.211666|   -9.868890|    0.007858|   -0.160586|    0.037370|   -0.779341|
|        2200|  -10.153614|   -9.237105|  -10.211102|   -9.871553|    0.007859|   -0.160586|    0.037370|   -0.780791|
+-----------------------------------------------------------------------+
|        File Writing Summary       |              Filename             |
+-----------------------------------------------------------------------+
|SU2 binary restart                 |restart.dat                        |
|Paraview                           |vol_solution.vtu                   |
|Paraview surface                   |surface.vtu                        |
+-----------------------------------------------------------------------+
+--------------------------------------------------------------------------------------------------------------------+
|  Inner_Iter|    rms[Rho]|   rms[RhoU]|   rms[RhoV]|   rms[RhoE]|          CD|          CL|         CMz|   LinSolRes|
+--------------------------------------------------------------------------------------------------------------------+
|        2225|  -10.158904|   -9.242583|  -10.220167|   -9.875921|    0.007860|   -0.160585|    0.037370|   -0.768936|
|        2250|  -10.128194|   -9.248609|  -10.205091|   -9.821978|    0.007860|   -0.160584|    0.037370|   -0.662925|
|        2275|  -10.159413|   -9.255358|  -10.229634|   -9.872381|    0.007861|   -0.160582|    0.037370|   -0.749389|
|        2300|  -10.124155|   -9.261386|  -10.203012|   -9.823634|    0.007862|   -0.160580|    0.037370|   -0.622747|
+-----------------------------------------------------------------------+
|        File Writing Summary       |              Filename             |
+-----------------------------------------------------------------------+
|SU2 binary restart                 |restart.dat                        |
|Paraview                           |vol_solution.vtu                   |
|Paraview surface                   |surface.vtu                        |
+-----------------------------------------------------------------------+
+--------------------------------------------------------------------------------------------------------------------+
|  Inner_Iter|    rms[Rho]|   rms[RhoU]|   rms[RhoV]|   rms[RhoE]|          CD|          CL|         CMz|   LinSolRes|
+--------------------------------------------------------------------------------------------------------------------+
|        2325|  -10.160053|   -9.270785|  -10.228656|   -9.872700|    0.007863|   -0.160577|    0.037370|   -0.608605|
|        2350|  -10.163589|   -9.278186|  -10.235660|   -9.893142|    0.007863|   -0.160574|    0.037370|   -0.715860|
|        2375|  -10.167019|   -9.284384|  -10.234011|   -9.888596|    0.007864|   -0.160570|    0.037371|   -0.705638|
|        2400|  -10.185904|   -9.290784|  -10.268181|   -9.927620|    0.007864|   -0.160568|    0.037371|   -0.793096|
+-----------------------------------------------------------------------+
|        File Writing Summary       |              Filename             |
+-----------------------------------------------------------------------+
|SU2 binary restart                 |restart.dat                        |
|Paraview                           |vol_solution.vtu                   |
|Paraview surface                   |surface.vtu                        |
+-----------------------------------------------------------------------+
+--------------------------------------------------------------------------------------------------------------------+
|  Inner_Iter|    rms[Rho]|   rms[RhoU]|   rms[RhoV]|   rms[RhoE]|          CD|          CL|         CMz|   LinSolRes|
+--------------------------------------------------------------------------------------------------------------------+
|        2425|  -10.180183|   -9.296235|  -10.248858|   -9.923381|    0.007865|   -0.160564|    0.037372|   -0.706861|
|        2450|  -10.188382|   -9.301535|  -10.243048|   -9.936988|    0.007865|   -0.160560|    0.037373|   -0.699560|
|        2475|  -10.189992|   -9.306761|  -10.239782|   -9.940804|    0.007866|   -0.160557|    0.037373|   -0.863908|
|        2500|  -10.206677|   -9.313252|  -10.258995|   -9.978088|    0.007866|   -0.160553|    0.037375|   -0.745495|
+-----------------------------------------------------------------------+
|        File Writing Summary       |              Filename             |
+-----------------------------------------------------------------------+
|SU2 binary restart                 |restart.dat                        |
|Paraview                           |vol_solution.vtu                   |
|Paraview surface                   |surface.vtu                        |
+-----------------------------------------------------------------------+
+--------------------------------------------------------------------------------------------------------------------+
|  Inner_Iter|    rms[Rho]|   rms[RhoU]|   rms[RhoV]|   rms[RhoE]|          CD|          CL|         CMz|   LinSolRes|
+--------------------------------------------------------------------------------------------------------------------+
|        2525|  -10.194304|   -9.318923|  -10.246464|   -9.943889|    0.007867|   -0.160548|    0.037375|   -0.721586|
|        2550|  -10.190683|   -9.324298|  -10.232390|   -9.939650|    0.007867|   -0.160544|    0.037376|   -0.704947|
|        2575|  -10.213473|   -9.330316|  -10.247362|   -9.993823|    0.007868|   -0.160539|    0.037378|   -0.837489|
|        2600|  -10.218169|   -9.336620|  -10.261815|  -10.000743|    0.007868|   -0.160535|    0.037379|   -0.948244|
+-----------------------------------------------------------------------+
|        File Writing Summary       |              Filename             |
+-----------------------------------------------------------------------+
|SU2 binary restart                 |restart.dat                        |
|Paraview                           |vol_solution.vtu                   |
|Paraview surface                   |surface.vtu                        |
+-----------------------------------------------------------------------+
+--------------------------------------------------------------------------------------------------------------------+
|  Inner_Iter|    rms[Rho]|   rms[RhoU]|   rms[RhoV]|   rms[RhoE]|          CD|          CL|         CMz|   LinSolRes|
+--------------------------------------------------------------------------------------------------------------------+
|        2625|  -10.236957|   -9.342568|  -10.262095|  -10.048937|    0.007868|   -0.160530|    0.037380|   -0.717488|
|        2650|  -10.206715|   -9.347899|  -10.239018|   -9.979269|    0.007869|   -0.160524|    0.037381|   -0.798223|
|        2675|  -10.217022|   -9.354119|  -10.254898|   -9.998519|    0.007869|   -0.160519|    0.037382|   -0.933372|
|        2700|  -10.232529|   -9.359985|  -10.246716|  -10.042075|    0.007870|   -0.160513|    0.037384|   -0.797515|
+-----------------------------------------------------------------------+
|        File Writing Summary       |              Filename             |
+-----------------------------------------------------------------------+
|SU2 binary restart                 |restart.dat                        |
|Paraview                           |vol_solution.vtu                   |
|Paraview surface                   |surface.vtu                        |
+-----------------------------------------------------------------------+
+--------------------------------------------------------------------------------------------------------------------+
|  Inner_Iter|    rms[Rho]|   rms[RhoU]|   rms[RhoV]|   rms[RhoE]|          CD|          CL|         CMz|   LinSolRes|
+--------------------------------------------------------------------------------------------------------------------+
|        2725|  -10.225551|   -9.365801|  -10.247433|  -10.021164|    0.007870|   -0.160508|    0.037385|   -0.836549|
|        2750|  -10.234044|   -9.371480|  -10.237361|  -10.043767|    0.007870|   -0.160502|    0.037387|   -0.780329|
|        2775|  -10.227660|   -9.377424|  -10.241258|  -10.026537|    0.007871|   -0.160496|    0.037388|   -0.820028|
|        2800|  -10.236722|   -9.383124|  -10.232240|  -10.051195|    0.007871|   -0.160490|    0.037390|   -0.764655|
+-----------------------------------------------------------------------+
|        File Writing Summary       |              Filename             |
+-----------------------------------------------------------------------+
|SU2 binary restart                 |restart.dat                        |
|Paraview                           |vol_solution.vtu                   |
|Paraview surface                   |surface.vtu                        |
+-----------------------------------------------------------------------+
+--------------------------------------------------------------------------------------------------------------------+
|  Inner_Iter|    rms[Rho]|   rms[RhoU]|   rms[RhoV]|   rms[RhoE]|          CD|          CL|         CMz|   LinSolRes|
+--------------------------------------------------------------------------------------------------------------------+
|        2825|  -10.230793|   -9.389055|  -10.238966|  -10.031811|    0.007871|   -0.160484|    0.037391|   -0.805714|
|        2850|  -10.239189|   -9.394875|  -10.231819|  -10.058361|    0.007872|   -0.160478|    0.037393|   -0.751178|
|        2875|  -10.233459|   -9.400891|  -10.237709|  -10.037337|    0.007872|   -0.160471|    0.037395|   -0.793528|
|        2900|  -10.242552|   -9.406661|  -10.230593|  -10.065568|    0.007873|   -0.160465|    0.037396|   -0.738675|
+-----------------------------------------------------------------------+
|        File Writing Summary       |              Filename             |
+-----------------------------------------------------------------------+
|SU2 binary restart                 |restart.dat                        |
|Paraview                           |vol_solution.vtu                   |
|Paraview surface                   |surface.vtu                        |
+-----------------------------------------------------------------------+
+--------------------------------------------------------------------------------------------------------------------+
|  Inner_Iter|    rms[Rho]|   rms[RhoU]|   rms[RhoV]|   rms[RhoE]|          CD|          CL|         CMz|   LinSolRes|
+--------------------------------------------------------------------------------------------------------------------+
|        2925|  -10.236298|   -9.412666|  -10.235321|  -10.043980|    0.007873|   -0.160459|    0.037398|   -0.781056|
|        2950|  -10.245421|   -9.418472|  -10.227783|  -10.071871|    0.007873|   -0.160452|    0.037400|   -0.726516|
|        2975|  -10.239100|   -9.424533|  -10.232659|  -10.050003|    0.007873|   -0.160446|    0.037402|   -0.769563|
|        3000|  -10.248340|   -9.430272|  -10.224778|  -10.078621|    0.007874|   -0.160439|    0.037404|   -0.714556|
+-----------------------------------------------------------------------+
|        File Writing Summary       |              Filename             |
+-----------------------------------------------------------------------+
|SU2 binary restart                 |restart.dat                        |
|Paraview                           |vol_solution.vtu                   |
|Paraview surface                   |surface.vtu                        |
+-----------------------------------------------------------------------+
+--------------------------------------------------------------------------------------------------------------------+
|  Inner_Iter|    rms[Rho]|   rms[RhoU]|   rms[RhoV]|   rms[RhoE]|          CD|          CL|         CMz|   LinSolRes|
+--------------------------------------------------------------------------------------------------------------------+
|        3025|  -10.241955|   -9.436304|  -10.230397|  -10.055736|    0.007874|   -0.160433|    0.037405|   -0.758207|
|        3050|  -10.251330|   -9.442086|  -10.223883|  -10.085529|    0.007874|   -0.160426|    0.037407|   -0.703810|
|        3075|  -10.245094|   -9.448157|  -10.229738|  -10.062363|    0.007875|   -0.160419|    0.037409|   -0.748407|
|        3100|  -10.254782|   -9.453928|  -10.223912|  -10.092857|    0.007875|   -0.160413|    0.037411|   -0.693948|
+-----------------------------------------------------------------------+
|        File Writing Summary       |              Filename             |
+-----------------------------------------------------------------------+
|SU2 binary restart                 |restart.dat                        |
|Paraview                           |vol_solution.vtu                   |
|Paraview surface                   |surface.vtu                        |
+-----------------------------------------------------------------------+
+--------------------------------------------------------------------------------------------------------------------+
|  Inner_Iter|    rms[Rho]|   rms[RhoU]|   rms[RhoV]|   rms[RhoE]|          CD|          CL|         CMz|   LinSolRes|
+--------------------------------------------------------------------------------------------------------------------+
|        3125|  -10.248278|   -9.460053|  -10.230107|  -10.069306|    0.007875|   -0.160406|    0.037413|   -0.738380|
|        3150|  -10.258129|   -9.465842|  -10.224330|  -10.100183|    0.007876|   -0.160399|    0.037415|   -0.684304|
|        3175|  -10.251778|   -9.471986|  -10.230776|  -10.076449|    0.007876|   -0.160392|    0.037417|   -0.729391|
|        3200|  -10.261611|   -9.477790|  -10.225143|  -10.108006|    0.007876|   -0.160386|    0.037419|   -0.675389|
+-----------------------------------------------------------------------+
|        File Writing Summary       |              Filename             |
+-----------------------------------------------------------------------+
|SU2 binary restart                 |restart.dat                        |
|Paraview                           |vol_solution.vtu                   |
|Paraview surface                   |surface.vtu                        |
+-----------------------------------------------------------------------+
+--------------------------------------------------------------------------------------------------------------------+
|  Inner_Iter|    rms[Rho]|   rms[RhoU]|   rms[RhoV]|   rms[RhoE]|          CD|          CL|         CMz|   LinSolRes|
+--------------------------------------------------------------------------------------------------------------------+
|        3225|  -10.255125|   -9.483977|  -10.231537|  -10.083259|    0.007876|   -0.160379|    0.037421|   -0.721312|
|        3250|  -10.265150|   -9.489790|  -10.226268|  -10.115661|    0.007877|   -0.160372|    0.037423|   -0.667394|
|        3275|  -10.258809|   -9.496007|  -10.232717|  -10.091026|    0.007877|   -0.160365|    0.037425|   -0.712954|
|        3300|  -10.268890|   -9.501832|  -10.227967|  -10.123718|    0.007877|   -0.160358|    0.037427|   -0.659720|
+-----------------------------------------------------------------------+
|        File Writing Summary       |              Filename             |
+-----------------------------------------------------------------------+
|SU2 binary restart                 |restart.dat                        |
|Paraview                           |vol_solution.vtu                   |
|Paraview surface                   |surface.vtu                        |
+-----------------------------------------------------------------------+
+--------------------------------------------------------------------------------------------------------------------+
|  Inner_Iter|    rms[Rho]|   rms[RhoU]|   rms[RhoV]|   rms[RhoE]|          CD|          CL|         CMz|   LinSolRes|
+--------------------------------------------------------------------------------------------------------------------+
|        3325|  -10.262666|   -9.508090|  -10.235081|  -10.099107|    0.007877|   -0.160351|    0.037429|   -0.705961|
|        3350|  -10.272820|   -9.513914|  -10.230880|  -10.132304|    0.007878|   -0.160345|    0.037431|   -0.652686|
|        3375|  -10.266621|   -9.520190|  -10.238498|  -10.107165|    0.007878|   -0.160338|    0.037433|   -0.699891|
|        3400|  -10.276896|   -9.526509|  -10.242681|  -10.141226|    0.007878|   -0.160331|    0.037435|   -0.699301|
+-----------------------------------------------------------------------+
|        File Writing Summary       |              Filename             |
+-----------------------------------------------------------------------+
|SU2 binary restart                 |restart.dat                        |
|Paraview                           |vol_solution.vtu                   |
|Paraview surface                   |surface.vtu                        |
+-----------------------------------------------------------------------+
+--------------------------------------------------------------------------------------------------------------------+
|  Inner_Iter|    rms[Rho]|   rms[RhoU]|   rms[RhoV]|   rms[RhoE]|          CD|          CL|         CMz|   LinSolRes|
+--------------------------------------------------------------------------------------------------------------------+
|        3425|  -10.278311|   -9.532728|  -10.244005|  -10.144512|    0.007878|   -0.160324|    0.037437|   -0.696948|
|        3450|  -10.281890|   -9.538898|  -10.245911|  -10.150515|    0.007878|   -0.160317|    0.037439|   -0.694127|
|        3475|  -10.282983|   -9.545186|  -10.248236|  -10.155481|    0.007879|   -0.160310|    0.037441|   -0.691083|
|        3500|  -10.285736|   -9.551486|  -10.250346|  -10.159928|    0.007879|   -0.160304|    0.037443|   -0.689132|
+-----------------------------------------------------------------------+
|        File Writing Summary       |              Filename             |
+-----------------------------------------------------------------------+
|SU2 binary restart                 |restart.dat                        |
|Paraview                           |vol_solution.vtu                   |
|Paraview surface                   |surface.vtu                        |
+-----------------------------------------------------------------------+
+--------------------------------------------------------------------------------------------------------------------+
|  Inner_Iter|    rms[Rho]|   rms[RhoU]|   rms[RhoV]|   rms[RhoE]|          CD|          CL|         CMz|   LinSolRes|
+--------------------------------------------------------------------------------------------------------------------+
|        3525|  -10.288298|   -9.557722|  -10.253443|  -10.165857|    0.007879|   -0.160297|    0.037445|   -0.686351|
|        3550|  -10.290101|   -9.564005|  -10.256882|  -10.170505|    0.007879|   -0.160290|    0.037447|   -0.684516|
|        3575|  -10.292691|   -9.570236|  -10.261017|  -10.175248|    0.007879|   -0.160284|    0.037449|   -0.682625|
|        3600|  -10.295238|   -9.576384|  -10.265567|  -10.181625|    0.007880|   -0.160277|    0.037451|   -0.680507|
+-----------------------------------------------------------------------+
|        File Writing Summary       |              Filename             |
+-----------------------------------------------------------------------+
|SU2 binary restart                 |restart.dat                        |
|Paraview                           |vol_solution.vtu                   |
|Paraview surface                   |surface.vtu                        |
+-----------------------------------------------------------------------+
+--------------------------------------------------------------------------------------------------------------------+
|  Inner_Iter|    rms[Rho]|   rms[RhoU]|   rms[RhoV]|   rms[RhoE]|          CD|          CL|         CMz|   LinSolRes|
+--------------------------------------------------------------------------------------------------------------------+
|        3625|  -10.297721|   -9.582565|  -10.269484|  -10.186873|    0.007880|   -0.160270|    0.037453|   -0.678817|
|        3650|  -10.300002|   -9.588969|  -10.273395|  -10.191889|    0.007880|   -0.160264|    0.037455|   -0.677109|
|        3675|  -10.302349|   -9.595381|  -10.276854|  -10.197165|    0.007880|   -0.160257|    0.037457|   -0.675368|
|        3700|  -10.304817|   -9.601678|  -10.279732|  -10.202601|    0.007880|   -0.160251|    0.037458|   -0.673611|
+-----------------------------------------------------------------------+
|        File Writing Summary       |              Filename             |
+-----------------------------------------------------------------------+
|SU2 binary restart                 |restart.dat                        |
|Paraview                           |vol_solution.vtu                   |
|Paraview surface                   |surface.vtu                        |
+-----------------------------------------------------------------------+
+--------------------------------------------------------------------------------------------------------------------+
|  Inner_Iter|    rms[Rho]|   rms[RhoU]|   rms[RhoV]|   rms[RhoE]|          CD|          CL|         CMz|   LinSolRes|
+--------------------------------------------------------------------------------------------------------------------+
|        3725|  -10.307171|   -9.608001|  -10.283081|  -10.207637|    0.007881|   -0.160244|    0.037460|   -0.671427|
|        3750|  -10.309386|   -9.614363|  -10.286664|  -10.212899|    0.007881|   -0.160238|    0.037462|   -0.669940|
|        3775|  -10.311934|   -9.620675|  -10.290298|  -10.218227|    0.007881|   -0.160232|    0.037464|   -0.668387|
|        3800|  -10.314450|   -9.626977|  -10.294531|  -10.223984|    0.007881|   -0.160226|    0.037466|   -0.666515|
+-----------------------------------------------------------------------+
|        File Writing Summary       |              Filename             |
+-----------------------------------------------------------------------+
|SU2 binary restart                 |restart.dat                        |
|Paraview                           |vol_solution.vtu                   |
|Paraview surface                   |surface.vtu                        |
+-----------------------------------------------------------------------+
+--------------------------------------------------------------------------------------------------------------------+
|  Inner_Iter|    rms[Rho]|   rms[RhoU]|   rms[RhoV]|   rms[RhoE]|          CD|          CL|         CMz|   LinSolRes|
+--------------------------------------------------------------------------------------------------------------------+
|        3825|  -10.316794|   -9.633338|  -10.298897|  -10.229487|    0.007881|   -0.160219|    0.037468|   -0.665254|
|        3850|  -10.319330|   -9.639709|  -10.303416|  -10.234860|    0.007882|   -0.160213|    0.037470|   -0.664008|
|        3875|  -10.321886|   -9.646068|  -10.308069|  -10.240906|    0.007882|   -0.160207|    0.037472|   -0.662636|
|        3900|  -10.324361|   -9.652453|  -10.312541|  -10.246532|    0.007882|   -0.160201|    0.037473|   -0.661411|
+-----------------------------------------------------------------------+
|        File Writing Summary       |              Filename             |
+-----------------------------------------------------------------------+
|SU2 binary restart                 |restart.dat                        |
|Paraview                           |vol_solution.vtu                   |
|Paraview surface                   |surface.vtu                        |
+-----------------------------------------------------------------------+
+--------------------------------------------------------------------------------------------------------------------+
|  Inner_Iter|    rms[Rho]|   rms[RhoU]|   rms[RhoV]|   rms[RhoE]|          CD|          CL|         CMz|   LinSolRes|
+--------------------------------------------------------------------------------------------------------------------+
|        3925|  -10.326822|   -9.658870|  -10.317085|  -10.251983|    0.007882|   -0.160195|    0.037475|   -0.660208|
|        3950|  -10.329326|   -9.665291|  -10.321527|  -10.257836|    0.007882|   -0.160189|    0.037477|   -0.659059|
|        3975|  -10.331844|   -9.671697|  -10.325860|  -10.263508|    0.007882|   -0.160184|    0.037479|   -0.657866|
|        4000|  -10.334305|   -9.678112|  -10.330330|  -10.269124|    0.007883|   -0.160178|    0.037480|   -0.656623|
+-----------------------------------------------------------------------+
|        File Writing Summary       |              Filename             |
+-----------------------------------------------------------------------+
|SU2 binary restart                 |restart.dat                        |
|Paraview                           |vol_solution.vtu                   |
|Paraview surface                   |surface.vtu                        |
+-----------------------------------------------------------------------+
+--------------------------------------------------------------------------------------------------------------------+
|  Inner_Iter|    rms[Rho]|   rms[RhoU]|   rms[RhoV]|   rms[RhoE]|          CD|          CL|         CMz|   LinSolRes|
+--------------------------------------------------------------------------------------------------------------------+
|        4025|  -10.336764|   -9.684532|  -10.334865|  -10.274832|    0.007883|   -0.160172|    0.037482|   -0.655666|
|        4050|  -10.339296|   -9.690930|  -10.339434|  -10.280547|    0.007883|   -0.160166|    0.037484|   -0.654553|
|        4075|  -10.341776|   -9.697319|  -10.344143|  -10.286342|    0.007883|   -0.160161|    0.037485|   -0.653282|
|        4100|  -10.344249|   -9.703720|  -10.348906|  -10.292060|    0.007883|   -0.160155|    0.037487|   -0.652506|
+-----------------------------------------------------------------------+
|        File Writing Summary       |              Filename             |
+-----------------------------------------------------------------------+
|SU2 binary restart                 |restart.dat                        |
|Paraview                           |vol_solution.vtu                   |
|Paraview surface                   |surface.vtu                        |
+-----------------------------------------------------------------------+
+--------------------------------------------------------------------------------------------------------------------+
|  Inner_Iter|    rms[Rho]|   rms[RhoU]|   rms[RhoV]|   rms[RhoE]|          CD|          CL|         CMz|   LinSolRes|
+--------------------------------------------------------------------------------------------------------------------+
|        4125|  -10.346775|   -9.710133|  -10.353726|  -10.297841|    0.007883|   -0.160150|    0.037489|   -0.651620|
|        4150|  -10.349306|   -9.716564|  -10.358555|  -10.303876|    0.007883|   -0.160144|    0.037490|   -0.650489|
|        4175|  -10.351796|   -9.723004|  -10.363367|  -10.309664|    0.007884|   -0.160139|    0.037492|   -0.649832|
|        4200|  -10.354277|   -9.729435|  -10.368285|  -10.315378|    0.007884|   -0.160134|    0.037494|   -0.648991|
+-----------------------------------------------------------------------+
|        File Writing Summary       |              Filename             |
+-----------------------------------------------------------------------+
|SU2 binary restart                 |restart.dat                        |
|Paraview                           |vol_solution.vtu                   |
|Paraview surface                   |surface.vtu                        |
+-----------------------------------------------------------------------+
+--------------------------------------------------------------------------------------------------------------------+
|  Inner_Iter|    rms[Rho]|   rms[RhoU]|   rms[RhoV]|   rms[RhoE]|          CD|          CL|         CMz|   LinSolRes|
+--------------------------------------------------------------------------------------------------------------------+
|        4225|  -10.356811|   -9.735846|  -10.373267|  -10.321448|    0.007884|   -0.160129|    0.037495|   -0.647910|
|        4250|  -10.359323|   -9.742247|  -10.378307|  -10.327309|    0.007884|   -0.160123|    0.037497|   -0.647372|
|        4275|  -10.361805|   -9.748667|  -10.383437|  -10.333113|    0.007884|   -0.160118|    0.037498|   -0.646680|
|        4300|  -10.364342|   -9.755104|  -10.388525|  -10.339237|    0.007884|   -0.160113|    0.037500|   -0.645684|
+-----------------------------------------------------------------------+
|        File Writing Summary       |              Filename             |
+-----------------------------------------------------------------------+
|SU2 binary restart                 |restart.dat                        |
|Paraview                           |vol_solution.vtu                   |
|Paraview surface                   |surface.vtu                        |
+-----------------------------------------------------------------------+
+--------------------------------------------------------------------------------------------------------------------+
|  Inner_Iter|    rms[Rho]|   rms[RhoU]|   rms[RhoV]|   rms[RhoE]|          CD|          CL|         CMz|   LinSolRes|
+--------------------------------------------------------------------------------------------------------------------+
|        4325|  -10.366842|   -9.761531|  -10.393566|  -10.345109|    0.007884|   -0.160108|    0.037501|   -0.645188|
|        4350|  -10.369299|   -9.767948|  -10.398638|  -10.350886|    0.007884|   -0.160103|    0.037503|   -0.644520|
|        4375|  -10.371814|   -9.774364|  -10.403708|  -10.356967|    0.007885|   -0.160098|    0.037504|   -0.643570|
|        4400|  -10.374295|   -9.780779|  -10.408779|  -10.362831|    0.007885|   -0.160094|    0.037506|   -0.643115|
+-----------------------------------------------------------------------+
|        File Writing Summary       |              Filename             |
+-----------------------------------------------------------------------+
|SU2 binary restart                 |restart.dat                        |
|Paraview                           |vol_solution.vtu                   |
|Paraview surface                   |surface.vtu                        |
+-----------------------------------------------------------------------+
+--------------------------------------------------------------------------------------------------------------------+
|  Inner_Iter|    rms[Rho]|   rms[RhoU]|   rms[RhoV]|   rms[RhoE]|          CD|          CL|         CMz|   LinSolRes|
+--------------------------------------------------------------------------------------------------------------------+
|        4425|  -10.376754|   -9.787194|  -10.413886|  -10.368659|    0.007885|   -0.160089|    0.037507|   -0.642499|
|        4450|  -10.379254|   -9.793610|  -10.419005|  -10.374745|    0.007885|   -0.160084|    0.037509|   -0.641619|
|        4475|  -10.381705|   -9.800016|  -10.424126|  -10.380575|    0.007885|   -0.160079|    0.037510|   -0.641180|
|        4500|  -10.384155|   -9.806416|  -10.429261|  -10.386405|    0.007885|   -0.160075|    0.037511|   -0.640555|
+-----------------------------------------------------------------------+
|        File Writing Summary       |              Filename             |
+-----------------------------------------------------------------------+
|SU2 binary restart                 |restart.dat                        |
|Paraview                           |vol_solution.vtu                   |
|Paraview surface                   |surface.vtu                        |
+-----------------------------------------------------------------------+
+--------------------------------------------------------------------------------------------------------------------+
|  Inner_Iter|    rms[Rho]|   rms[RhoU]|   rms[RhoV]|   rms[RhoE]|          CD|          CL|         CMz|   LinSolRes|
+--------------------------------------------------------------------------------------------------------------------+
|        4525|  -10.386637|   -9.812820|  -10.434394|  -10.392477|    0.007885|   -0.160070|    0.037513|   -0.639759|
|        4550|  -10.389081|   -9.819226|  -10.439521|  -10.398343|    0.007885|   -0.160066|    0.037514|   -0.639400|
|        4575|  -10.391526|   -9.825640|  -10.444660|  -10.404223|    0.007885|   -0.160061|    0.037515|   -0.638792|
|        4600|  -10.393990|   -9.832060|  -10.449790|  -10.410262|    0.007886|   -0.160057|    0.037517|   -0.638060|
+-----------------------------------------------------------------------+
|        File Writing Summary       |              Filename             |
+-----------------------------------------------------------------------+
|SU2 binary restart                 |restart.dat                        |
|Paraview                           |vol_solution.vtu                   |
|Paraview surface                   |surface.vtu                        |
+-----------------------------------------------------------------------+
+--------------------------------------------------------------------------------------------------------------------+
|  Inner_Iter|    rms[Rho]|   rms[RhoU]|   rms[RhoV]|   rms[RhoE]|          CD|          CL|         CMz|   LinSolRes|
+--------------------------------------------------------------------------------------------------------------------+
|        4625|  -10.396420|   -9.838456|  -10.454971|  -10.416110|    0.007886|   -0.160053|    0.037518|   -0.637692|
|        4650|  -10.398867|   -9.844841|  -10.460260|  -10.422051|    0.007886|   -0.160048|    0.037519|   -0.637132|
|        4675|  -10.401325|   -9.851233|  -10.465585|  -10.428107|    0.007886|   -0.160044|    0.037521|   -0.636577|
|        4700|  -10.403764|   -9.857619|  -10.470951|  -10.434066|    0.007886|   -0.160040|    0.037522|   -0.636273|
+-----------------------------------------------------------------------+
|        File Writing Summary       |              Filename             |
+-----------------------------------------------------------------------+
|SU2 binary restart                 |restart.dat                        |
|Paraview                           |vol_solution.vtu                   |
|Paraview surface                   |surface.vtu                        |
+-----------------------------------------------------------------------+
+--------------------------------------------------------------------------------------------------------------------+
|  Inner_Iter|    rms[Rho]|   rms[RhoU]|   rms[RhoV]|   rms[RhoE]|          CD|          CL|         CMz|   LinSolRes|
+--------------------------------------------------------------------------------------------------------------------+
|        4725|  -10.406204|   -9.864003|  -10.476333|  -10.440049|    0.007886|   -0.160036|    0.037523|   -0.635720|
|        4750|  -10.408634|   -9.870390|  -10.481664|  -10.446011|    0.007886|   -0.160032|    0.037524|   -0.635266|
|        4775|  -10.411068|   -9.876772|  -10.486999|  -10.452001|    0.007886|   -0.160028|    0.037525|   -0.634926|
|        4800|  -10.413500|   -9.883165|  -10.492323|  -10.458013|    0.007886|   -0.160024|    0.037527|   -0.634419|
+-----------------------------------------------------------------------+
|        File Writing Summary       |              Filename             |
+-----------------------------------------------------------------------+
|SU2 binary restart                 |restart.dat                        |
|Paraview                           |vol_solution.vtu                   |
|Paraview surface                   |surface.vtu                        |
+-----------------------------------------------------------------------+
+--------------------------------------------------------------------------------------------------------------------+
|  Inner_Iter|    rms[Rho]|   rms[RhoU]|   rms[RhoV]|   rms[RhoE]|          CD|          CL|         CMz|   LinSolRes|
+--------------------------------------------------------------------------------------------------------------------+
|        4825|  -10.415913|   -9.889569|  -10.497602|  -10.463934|    0.007886|   -0.160020|    0.037528|   -0.634109|
|        4850|  -10.418343|   -9.895960|  -10.502933|  -10.469988|    0.007886|   -0.160016|    0.037529|   -0.633697|
|        4875|  -10.420757|   -9.902346|  -10.508283|  -10.475971|    0.007887|   -0.160012|    0.037530|   -0.633218|
|        4900|  -10.423153|   -9.908721|  -10.513655|  -10.481821|    0.007887|   -0.160008|    0.037531|   -0.632996|
+-----------------------------------------------------------------------+
|        File Writing Summary       |              Filename             |
+-----------------------------------------------------------------------+
|SU2 binary restart                 |restart.dat                        |
|Paraview                           |vol_solution.vtu                   |
|Paraview surface                   |surface.vtu                        |
+-----------------------------------------------------------------------+
+--------------------------------------------------------------------------------------------------------------------+
|  Inner_Iter|    rms[Rho]|   rms[RhoU]|   rms[RhoV]|   rms[RhoE]|          CD|          CL|         CMz|   LinSolRes|
+--------------------------------------------------------------------------------------------------------------------+
|        4925|  -10.425588|   -9.915087|  -10.519130|  -10.487980|    0.007887|   -0.160005|    0.037532|   -0.632556|
|        4950|  -10.427998|   -9.921474|  -10.524582|  -10.493991|    0.007887|   -0.160001|    0.037534|   -0.632222|
|        4975|  -10.430387|   -9.927873|  -10.530001|  -10.499844|    0.007887|   -0.159997|    0.037535|   -0.632056|
[...]
|Paraview surface                   |surface.vtu                        |
+-----------------------------------------------------------------------+
+--------------------------------------------------------------------------------------------------------------------+
|  Inner_Iter|    rms[Rho]|   rms[RhoU]|   rms[RhoV]|   rms[RhoE]|          CD|          CL|         CMz|   LinSolRes|
+--------------------------------------------------------------------------------------------------------------------+
|        5025|  -10.435209|   -9.940662|  -10.540881|  -10.512009|    0.007887|   -0.159990|    0.037537|   -0.631371|
|        5050|  -10.437591|   -9.947050|  -10.546344|  -10.517880|    0.007887|   -0.159987|    0.037538|   -0.631200|
|        5075|  -10.440003|   -9.953435|  -10.551848|  -10.524082|    0.007887|   -0.159983|    0.037539|   -0.630694|
|        5100|  -10.442382|   -9.959820|  -10.557318|  -10.529981|    0.007887|   -0.159980|    0.037540|   -0.630586|
+-----------------------------------------------------------------------+
|        File Writing Summary       |              Filename             |
+-----------------------------------------------------------------------+
|SU2 binary restart                 |restart.dat                        |
|Paraview                           |vol_solution.vtu                   |
|Paraview surface                   |surface.vtu                        |
+-----------------------------------------------------------------------+
+--------------------------------------------------------------------------------------------------------------------+
|  Inner_Iter|    rms[Rho]|   rms[RhoU]|   rms[RhoV]|   rms[RhoE]|          CD|          CL|         CMz|   LinSolRes|
+--------------------------------------------------------------------------------------------------------------------+
|        5125|  -10.444760|   -9.966200|  -10.562821|  -10.535902|    0.007887|   -0.159977|    0.037541|   -0.630344|
|        5150|  -10.447161|   -9.972584|  -10.568312|  -10.542078|    0.007887|   -0.159973|    0.037542|   -0.629947|
|        5175|  -10.449533|   -9.978981|  -10.573768|  -10.547995|    0.007887|   -0.159970|    0.037543|   -0.629900|
|        5200|  -10.451909|   -9.985388|  -10.579232|  -10.553995|    0.007887|   -0.159967|    0.037544|   -0.629561|
+-----------------------------------------------------------------------+
|        File Writing Summary       |              Filename             |
+-----------------------------------------------------------------------+
|SU2 binary restart                 |restart.dat                        |
|Paraview                           |vol_solution.vtu                   |
|Paraview surface                   |surface.vtu                        |
+-----------------------------------------------------------------------+
+--------------------------------------------------------------------------------------------------------------------+
|  Inner_Iter|    rms[Rho]|   rms[RhoU]|   rms[RhoV]|   rms[RhoE]|          CD|          CL|         CMz|   LinSolRes|
+--------------------------------------------------------------------------------------------------------------------+
|        5225|  -10.454290|   -9.991790|  -10.584672|  -10.560063|    0.007887|   -0.159964|    0.037545|   -0.629284|
|        5250|  -10.456661|   -9.998174|  -10.590184|  -10.566035|    0.007888|   -0.159960|    0.037546|   -0.629202|
|        5275|  -10.459038|  -10.004560|  -10.595757|  -10.572115|    0.007888|   -0.159957|    0.037547|   -0.628869|
|        5300|  -10.461409|  -10.010956|  -10.601321|  -10.578138|    0.007888|   -0.159954|    0.037548|   -0.628802|
+-----------------------------------------------------------------------+
|        File Writing Summary       |              Filename             |
+-----------------------------------------------------------------------+
|SU2 binary restart                 |restart.dat                        |
|Paraview                           |vol_solution.vtu                   |
|Paraview surface                   |surface.vtu                        |
+-----------------------------------------------------------------------+
+--------------------------------------------------------------------------------------------------------------------+
|  Inner_Iter|    rms[Rho]|   rms[RhoU]|   rms[RhoV]|   rms[RhoE]|          CD|          CL|         CMz|   LinSolRes|
+--------------------------------------------------------------------------------------------------------------------+
|        5325|  -10.463787|  -10.017349|  -10.606946|  -10.584271|    0.007888|   -0.159951|    0.037548|   -0.628667|
|        5350|  -10.466157|  -10.023748|  -10.612558|  -10.590358|    0.007888|   -0.159948|    0.037549|   -0.628426|
|        5375|  -10.468514|  -10.030152|  -10.618153|  -10.596307|    0.007888|   -0.159945|    0.037550|   -0.628478|
|        5400|  -10.470898|  -10.036553|  -10.623814|  -10.602560|    0.007888|   -0.159942|    0.037551|   -0.628268|
+-----------------------------------------------------------------------+
|        File Writing Summary       |              Filename             |
+-----------------------------------------------------------------------+
|SU2 binary restart                 |restart.dat                        |
|Paraview                           |vol_solution.vtu                   |
|Paraview surface                   |surface.vtu                        |
+-----------------------------------------------------------------------+
+--------------------------------------------------------------------------------------------------------------------+
|  Inner_Iter|    rms[Rho]|   rms[RhoU]|   rms[RhoV]|   rms[RhoE]|          CD|          CL|         CMz|   LinSolRes|
+--------------------------------------------------------------------------------------------------------------------+
|        5425|  -10.473256|  -10.042960|  -10.629443|  -10.608597|    0.007888|   -0.159939|    0.037552|   -0.628200|
|        5450|  -10.475601|  -10.049363|  -10.635081|  -10.614516|    0.007888|   -0.159937|    0.037553|   -0.628230|
|        5475|  -10.477978|  -10.055767|  -10.640751|  -10.620789|    0.007888|   -0.159934|    0.037554|   -0.627964|
|        5500|  -10.480323|  -10.062176|  -10.646383|  -10.626750|    0.007888|   -0.159931|    0.037554|   -0.628050|
+-----------------------------------------------------------------------+
|        File Writing Summary       |              Filename             |
+-----------------------------------------------------------------------+
|SU2 binary restart                 |restart.dat                        |
|Paraview                           |vol_solution.vtu                   |
|Paraview surface                   |surface.vtu                        |
+-----------------------------------------------------------------------+
+--------------------------------------------------------------------------------------------------------------------+
|  Inner_Iter|    rms[Rho]|   rms[RhoU]|   rms[RhoV]|   rms[RhoE]|          CD|          CL|         CMz|   LinSolRes|
+--------------------------------------------------------------------------------------------------------------------+
|        5525|  -10.482672|  -10.068581|  -10.652044|  -10.632757|    0.007888|   -0.159928|    0.037555|   -0.628005|
|        5550|  -10.485038|  -10.075003|  -10.657699|  -10.638998|    0.007888|   -0.159926|    0.037556|   -0.627827|
|        5575|  -10.487378|  -10.081431|  -10.663332|  -10.644964|    0.007888|   -0.159923|    0.037557|   -0.627956|
|        5600|  -10.489726|  -10.087847|  -10.669010|  -10.651053|    0.007888|   -0.159920|    0.037558|   -0.627792|
+-----------------------------------------------------------------------+
|        File Writing Summary       |              Filename             |
+-----------------------------------------------------------------------+
|SU2 binary restart                 |restart.dat                        |
|Paraview                           |vol_solution.vtu                   |
|Paraview surface                   |surface.vtu                        |
+-----------------------------------------------------------------------+
+--------------------------------------------------------------------------------------------------------------------+
|  Inner_Iter|    rms[Rho]|   rms[RhoU]|   rms[RhoV]|   rms[RhoE]|          CD|          CL|         CMz|   LinSolRes|
+--------------------------------------------------------------------------------------------------------------------+
|        5625|  -10.492080|  -10.094268|  -10.674699|  -10.657219|    0.007888|   -0.159918|    0.037558|   -0.627830|
|        5650|  -10.494428|  -10.100695|  -10.680451|  -10.663350|    0.007888|   -0.159915|    0.037559|   -0.627961|
|        5675|  -10.496784|  -10.107129|  -10.686243|  -10.669570|    0.007888|   -0.159913|    0.037560|   -0.627868|
|        5700|  -10.499129|  -10.113571|  -10.692044|  -10.675672|    0.007888|   -0.159910|    0.037561|   -0.628111|
+-----------------------------------------------------------------------+
|        File Writing Summary       |              Filename             |
+-----------------------------------------------------------------------+
|SU2 binary restart                 |restart.dat                        |
|Paraview                           |vol_solution.vtu                   |
|Paraview surface                   |surface.vtu                        |
+-----------------------------------------------------------------------+
+--------------------------------------------------------------------------------------------------------------------+
|  Inner_Iter|    rms[Rho]|   rms[RhoU]|   rms[RhoV]|   rms[RhoE]|          CD|          CL|         CMz|   LinSolRes|
+--------------------------------------------------------------------------------------------------------------------+
|        5725|  -10.501484|  -10.120000|  -10.697938|  -10.681959|    0.007888|   -0.159908|    0.037561|   -0.628140|
|        5750|  -10.503829|  -10.126427|  -10.703827|  -10.688114|    0.007889|   -0.159905|    0.037562|   -0.628187|
|        5775|  -10.506163|  -10.132854|  -10.709722|  -10.694156|    0.007889|   -0.159903|    0.037563|   -0.628463|
|        5800|  -10.508516|  -10.139287|  -10.715622|  -10.700520|    0.007889|   -0.159901|    0.037564|   -0.628422|
+-----------------------------------------------------------------------+
|        File Writing Summary       |              Filename             |
+-----------------------------------------------------------------------+
|SU2 binary restart                 |restart.dat                        |
|Paraview                           |vol_solution.vtu                   |
|Paraview surface                   |surface.vtu                        |
+-----------------------------------------------------------------------+
+--------------------------------------------------------------------------------------------------------------------+
|  Inner_Iter|    rms[Rho]|   rms[RhoU]|   rms[RhoV]|   rms[RhoE]|          CD|          CL|         CMz|   LinSolRes|
+--------------------------------------------------------------------------------------------------------------------+
|        5825|  -10.510846|  -10.145740|  -10.721417|  -10.706563|    0.007889|   -0.159898|    0.037564|   -0.628648|
|        5850|  -10.513176|  -10.152208|  -10.727173|  -10.712629|    0.007889|   -0.159896|    0.037565|   -0.628786|
|        5875|  -10.515518|  -10.158683|  -10.732887|  -10.718917|    0.007889|   -0.159894|    0.037566|   -0.628763|
|        5900|  -10.517838|  -10.165154|  -10.738584|  -10.724896|    0.007889|   -0.159891|    0.037566|   -0.629029|
+-----------------------------------------------------------------------+
|        File Writing Summary       |              Filename             |
+-----------------------------------------------------------------------+
|SU2 binary restart                 |restart.dat                        |
|Paraview                           |vol_solution.vtu                   |
|Paraview surface                   |surface.vtu                        |
+-----------------------------------------------------------------------+
+--------------------------------------------------------------------------------------------------------------------+
|  Inner_Iter|    rms[Rho]|   rms[RhoU]|   rms[RhoV]|   rms[RhoE]|          CD|          CL|         CMz|   LinSolRes|
+--------------------------------------------------------------------------------------------------------------------+
|        5925|  -10.520171|  -10.171620|  -10.744365|  -10.731063|    0.007889|   -0.159889|    0.037567|   -0.629030|
|        5950|  -10.522507|  -10.178091|  -10.750186|  -10.737308|    0.007889|   -0.159887|    0.037568|   -0.629250|
|        5975|  -10.524839|  -10.184552|  -10.756116|  -10.743500|    0.007889|   -0.159885|    0.037568|   -0.629547|
|        6000|  -10.527177|  -10.191023|  -10.762112|  -10.749797|    0.007889|   -0.159883|    0.037569|   -0.629604|
+-----------------------------------------------------------------------+
|        File Writing Summary       |              Filename             |
+-----------------------------------------------------------------------+
|SU2 binary restart                 |restart.dat                        |
|Paraview                           |vol_solution.vtu                   |
|Paraview surface                   |surface.vtu                        |
+-----------------------------------------------------------------------+
+--------------------------------------------------------------------------------------------------------------------+
|  Inner_Iter|    rms[Rho]|   rms[RhoU]|   rms[RhoV]|   rms[RhoE]|          CD|          CL|         CMz|   LinSolRes|
+--------------------------------------------------------------------------------------------------------------------+
|        6025|  -10.529506|  -10.197507|  -10.768103|  -10.755976|    0.007889|   -0.159881|    0.037569|   -0.630033|
|        6050|  -10.531846|  -10.203984|  -10.774155|  -10.762361|    0.007889|   -0.159879|    0.037570|   -0.630248|
|        6075|  -10.534177|  -10.210474|  -10.780166|  -10.768601|    0.007889|   -0.159877|    0.037571|   -0.630513|
|        6100|  -10.536503|  -10.216983|  -10.786154|  -10.774759|    0.007889|   -0.159875|    0.037571|   -0.630978|
+-----------------------------------------------------------------------+
|        File Writing Summary       |              Filename             |
+-----------------------------------------------------------------------+
|SU2 binary restart                 |restart.dat                        |
|Paraview                           |vol_solution.vtu                   |
|Paraview surface                   |surface.vtu                        |
+-----------------------------------------------------------------------+
+--------------------------------------------------------------------------------------------------------------------+
|  Inner_Iter|    rms[Rho]|   rms[RhoU]|   rms[RhoV]|   rms[RhoE]|          CD|          CL|         CMz|   LinSolRes|
+--------------------------------------------------------------------------------------------------------------------+
|        6125|  -10.538844|  -10.223503|  -10.792146|  -10.781220|    0.007889|   -0.159873|    0.037572|   -0.631147|
|        6150|  -10.541165|  -10.230024|  -10.798093|  -10.787343|    0.007889|   -0.159871|    0.037572|   -0.631602|
|        6175|  -10.543490|  -10.236532|  -10.804109|  -10.793562|    0.007889|   -0.159869|    0.037573|   -0.631921|
|        6200|  -10.545825|  -10.243043|  -10.810160|  -10.799984|    0.007889|   -0.159867|    0.037574|   -0.632219|
+-----------------------------------------------------------------------+
|        File Writing Summary       |              Filename             |
+-----------------------------------------------------------------------+
|SU2 binary restart                 |restart.dat                        |
|Paraview                           |vol_solution.vtu                   |
|Paraview surface                   |surface.vtu                        |
+-----------------------------------------------------------------------+
+--------------------------------------------------------------------------------------------------------------------+
|  Inner_Iter|    rms[Rho]|   rms[RhoU]|   rms[RhoV]|   rms[RhoE]|          CD|          CL|         CMz|   LinSolRes|
+--------------------------------------------------------------------------------------------------------------------+
|        6225|  -10.548148|  -10.249556|  -10.816251|  -10.806180|    0.007889|   -0.159865|    0.037574|   -0.632771|
|        6250|  -10.550481|  -10.256077|  -10.822406|  -10.812574|    0.007889|   -0.159863|    0.037575|   -0.633019|
|        6275|  -10.552811|  -10.262615|  -10.828532|  -10.818933|    0.007889|   -0.159862|    0.037575|   -0.633576|
|        6300|  -10.555141|  -10.269155|  -10.834700|  -10.825322|    0.007889|   -0.159860|    0.037576|   -0.634066|
+-----------------------------------------------------------------------+
|        File Writing Summary       |              Filename             |
+-----------------------------------------------------------------------+
|SU2 binary restart                 |restart.dat                        |
|Paraview                           |vol_solution.vtu                   |
|Paraview surface                   |surface.vtu                        |
+-----------------------------------------------------------------------+
+--------------------------------------------------------------------------------------------------------------------+
|  Inner_Iter|    rms[Rho]|   rms[RhoU]|   rms[RhoV]|   rms[RhoE]|          CD|          CL|         CMz|   LinSolRes|
+--------------------------------------------------------------------------------------------------------------------+
|        6325|  -10.557469|  -10.275706|  -10.840854|  -10.831716|    0.007889|   -0.159858|    0.037576|   -0.634398|
|        6338|  -10.558681|  -10.279115|  -10.844046|  -10.835051|    0.007889|   -0.159857|    0.037576|   -0.634685|

----------------------------- Solver Exit -------------------------------
All convergence criteria satisfied.
+-----------------------------------------------------------------------+
|      Convergence Field     |     Value    |   Criterion  |  Converged |
+-----------------------------------------------------------------------+
|                  Cauchy[CL]|   4.99921e-07|       < 5e-07|         Yes|
+-----------------------------------------------------------------------+
-------------------------------------------------------------------------
+-----------------------------------------------------------------------+
|        File Writing Summary       |              Filename             |
+-----------------------------------------------------------------------+
|SU2 binary restart                 |restart.dat                        |
|Paraview                           |vol_solution.vtu                   |
|Paraview surface                   |surface.vtu                        |
+-----------------------------------------------------------------------+

------------------------- Solver Postprocessing -------------------------
Deleted CNumerics container.
Deleted CIntegration container.
Deleted CSolver container.
Deleted CIteration container.
Deleted CInterface container.
Deleted CGeometry container.
Deleted CFreeFormDefBox class.
Deleted CSurfaceMovement class.
Deleted CVolumetricMovement class.
Deleted CConfig container.
Deleted nInst container.
Deleted COutput class.
-------------------------------------------------------------------------

------------------------- Exit Success (SU2_CFD) ------------------------

