  
       XFOIL         Version 6.99
  
 Calculated polar for: Airfoil 31                                      
  
 1 1 Reynolds number fixed          Mach number fixed         
  
 xtrf =   0.300 (top)        0.300 (bottom)  
 Mach =   0.210     Re =    12.819 e 6     Ncrit =   9.000  9.000
  
   alpha    CL        CD       CDp       CM     Top_Xtr  Bot_Xtr  Top_Itr  Bot_Itr
  ------ -------- --------- --------- -------- -------- -------- -------- --------
   0.000   0.3351   0.00555   0.00037  -0.0891   0.3000   0.2936  49.4016 110.1999
   1.667   0.5305   0.00655   0.00044  -0.0910   0.0964   0.3000  63.4158 110.6225
   3.333   0.7259   0.00736   0.00022  -0.0924   0.0287   0.3000  69.2323 110.6225
   5.000   0.9200   0.00821  -0.00061  -0.0930   0.0123   0.3000  72.2451 110.6225
