
 ===================================================
  XFOIL Version 6.99
  Copyright (C) 2000   Mark Drela, Harold Youngren

  This software comes with ABSOLUTELY NO WARRANTY,
    subject to the GNU General Public License.

  Caveat computor
 ===================================================

 File  xfoil.def  not found

 File OPEN error.  Nonexistent file:  -n  
 *** LOAD NOT COMPLETED ***

   QUIT    Exit program

  .OPER    Direct operating point(s)
  .MDES    Complex mapping design routine
  .QDES    Surface speed design routine
  .GDES    Geometry design routine

   SAVE f  Write airfoil to labeled coordinate file
   PSAV f  Write airfoil to plain coordinate file
   ISAV f  Write airfoil to ISES coordinate file
   MSAV f  Write airfoil to MSES coordinate file
   REVE    Reverse written-airfoil node ordering
   DELI i  Change written-airfoil file delimiters

   LOAD f  Read buffer airfoil from coordinate file
   NACA i  Set NACA 4,5-digit airfoil and buffer airfoil
   INTE    Set buffer airfoil by interpolating two airfoils
   NORM    Buffer airfoil normalization toggle
   HALF    Halve the number of points in buffer airfoil
   XYCM rr Change CM reference location, currently  0.25000 0.00000

   BEND    Display structural properties of current airfoil

   PCOP    Set current-airfoil panel nodes directly from buffer airfoil points
   PANE    Set current-airfoil panel nodes ( 160 ) based on curvature
  .PPAR    Show/change paneling

  .PLOP    Plotting options

   WDEF f  Write  current-settings file
   RDEF f  Reread current-settings file
   NAME s  Specify new airfoil name
   NINC    Increment name version number

   Z       Zoom    | (available in all menus)
   U       Unzoom  | 

 XFOIL   c>  
 XFOIL   c>  
 Labeled airfoil file.  Name:  Airfoil 31                                      

 Number of input coordinate points: 121
 Counterclockwise ordering
 Max thickness =     0.108497  at x =   0.448
 Max camber    =     0.014292  at x =   0.815

  LE  x,y  =  -0.00000  -0.00000  |   Chord =   1.00000
  TE  x,y  =   1.00000   0.00000  |

 Current airfoil nodes set from buffer airfoil nodes ( 121 )

 XFOIL   c>  
    Present paneling parameters...
  N  i   Number of panel nodes       160
  P  r   Panel bunching parameter    1.000
  T  r   TE/LE panel density ratio   0.150
  R  r   Refined area/LE  panel density ratio   0.200
  XT rr  Top    side refined area x/c limits    1.000 1.000
  XB rr  Bottom side refined area x/c limits    1.000 1.000
  Z oom
  U nzoom
  H ardcopy

Change what ? (<cr> if nothing else)   c>  
Change what ? (<cr> if nothing else)   c>  
 Blunt trailing edge.  Gap =  0.00400

 Maximum panel corner angle = 11.230   at  i,x,y  =  80   0.0000   0.0002

    Present paneling parameters...
  N  i   Number of panel nodes       160
  P  r   Panel bunching parameter    1.000
  T  r   TE/LE panel density ratio   0.150
  R  r   Refined area/LE  panel density ratio   0.200
  XT rr  Top    side refined area x/c limits    1.000 1.000
  XB rr  Bottom side refined area x/c limits    1.000 1.000
  Z oom
  U nzoom
  H ardcopy

Change what ? (<cr> if nothing else)   c>  
Change what ? (<cr> if nothing else)   c>  
 Blunt trailing edge.  Gap =  0.00400

 Maximum panel corner angle = 11.230   at  i,x,y  =  80   0.0000   0.0002

    Present paneling parameters...
  N  i   Number of panel nodes       160
  P  r   Panel bunching parameter    1.000
  T  r   TE/LE panel density ratio   0.150
  R  r   Refined area/LE  panel density ratio   0.200
  XT rr  Top    side refined area x/c limits    1.000 1.000
  XB rr  Bottom side refined area x/c limits    1.000 1.000
  Z oom
  U nzoom
  H ardcopy

Change what ? (<cr> if nothing else)   c>  
Change what ? (<cr> if nothing else)   c>  
 Blunt trailing edge.  Gap =  0.00400

 Maximum panel corner angle = 11.230   at  i,x,y  =  80   0.0000   0.0002

    Present paneling parameters...
  N  i   Number of panel nodes       160
  P  r   Panel bunching parameter    1.000
  T  r   TE/LE panel density ratio   0.150
  R  r   Refined area/LE  panel density ratio   0.200
  XT rr  Top    side refined area x/c limits    1.000 1.000
  XB rr  Bottom side refined area x/c limits    1.000 1.000
  Z oom
  U nzoom
  H ardcopy

Change what ? (<cr> if nothing else)   c>  
Change what ? (<cr> if nothing else)   c>  
 Blunt trailing edge.  Gap =  0.00400

 Maximum panel corner angle = 11.230   at  i,x,y  =  80   0.0000   0.0002

    Present paneling parameters...
  N  i   Number of panel nodes       160
  P  r   Panel bunching parameter    1.000
  T  r   TE/LE panel density ratio   0.150
  R  r   Refined area/LE  panel density ratio   0.200
  XT rr  Top    side refined area x/c limits    1.000 1.000
  XB rr  Bottom side refined area x/c limits    1.000 1.000
  Z oom
  U nzoom
  H ardcopy

Change what ? (<cr> if nothing else)   c>  
Change what ? (<cr> if nothing else)   c>  
 Blunt trailing edge.  Gap =  0.00400

 Maximum panel corner angle = 11.230   at  i,x,y  =  80   0.0000   0.0002

    Present paneling parameters...
  N  i   Number of panel nodes       160
  P  r   Panel bunching parameter    1.000
  T  r   TE/LE panel density ratio   0.150
  R  r   Refined area/LE  panel density ratio   0.200
  XT rr  Top    side refined area x/c limits    1.000 1.000
  XB rr  Bottom side refined area x/c limits    1.000 1.000
  Z oom
  U nzoom
  H ardcopy

Change what ? (<cr> if nothing else)   c>  
Change what ? (<cr> if nothing else)   c>  
 Blunt trailing edge.  Gap =  0.00400

 Maximum panel corner angle = 11.230   at  i,x,y  =  80   0.0000   0.0002

    Present paneling parameters...
  N  i   Number of panel nodes       160
  P  r   Panel bunching parameter    1.000
  T  r   TE/LE panel density ratio   0.150
  R  r   Refined area/LE  panel density ratio   0.200
  XT rr  Top    side refined area x/c limits    1.000 1.000
  XB rr  Bottom side refined area x/c limits    1.000 1.000
  Z oom
  U nzoom
  H ardcopy

Change what ? (<cr> if nothing else)   c>  
 XFOIL   c>  
.OPERi   c>  
 M  =    0.0000
 Re =  0.1282E+08

.OPERv   c>  
 Xtr/c     =  1.0000    top    side
 Xtr/c     =  1.0000    bottom side
 NcritT    =    9.00   ( 0.070 % turb. level )
 NcritB    =    9.00   ( 0.070 % turb. level )
 Vacc      =  0.0100
 WakeL/c   =   1.000

 Klag  =  5.6000     Uxwt  =    1.00       Kdl =  0.9000
 A     =  6.7000     B     =  0.7500       KCt = 0.01485
 CtiniK=  1.8000     CtiniX=  3.3000

..VPAR   c>  
..VPAR   c>  
Enter top    side Xtrip/c   r>  
Enter bottom side Xtrip/c   r>  
..VPAR   c>  
.OPERv   c>  
 Currently...

 M  =    0.0000

Enter Mach number   r>  
 Sonic Cp =    -14.75      Sonic Q/Qinf =     4.366


.OPERv   c>  
.OPERv   c>  
 Polar  1 newly created for accumulation
 Airfoil archived with polar: Airfoil 31                                      

Enter  polar save filename  OR  <return> for no file   s>  
 New polar save file available

Enter  polar dump filename  OR  <return> for no file   s>  
 Polar dump file will NOT be written

 Polar accumulation enabled

.OPERva   c>   Calculating unit vorticity distributions ...
 Calculating wake trajectory ...
 Calculating source influence matrix ...

 Solving BL system ...

 Initializing BL ...
    side            1  ...
    side            2  ...

 Side 1  free  transition at x/c =  0.2871   33
 Side 2 forced transition at x/c =  0.3000   31

   1   rms: 0.8585E-01   max: -.1726E+01   C at   33  1   RLX: 0.290
       a =  0.000      CL =  0.3648
      Cm = -0.0959     CD =  0.00537   =>   CDf =  0.00449    CDp =  0.00088

 Side 1  free  transition at x/c =  0.2893   33
 Side 2 forced transition at x/c =  0.3000   31

   2   rms: 0.6967E-01   max: -.1514E+01   C at   33  1   RLX: 0.330
       a =  0.000      CL =  0.3571
      Cm = -0.0942     CD =  0.00542   =>   CDf =  0.00450    CDp =  0.00092

 Side 1  free  transition at x/c =  0.2924   34
 Side 2 forced transition at x/c =  0.3000   31

   3   rms: 0.3294E-01   max: -.2479E+00   D at   82  1
       a =  0.000      CL =  0.3382
      Cm = -0.0899     CD =  0.00551   =>   CDf =  0.00450    CDp =  0.00101

 Side 1 forced transition at x/c =  0.3000   34
 Side 2  free  transition at x/c =  0.3000   31

   4   rms: 0.3012E-02   max: -.1934E-01   D at   82  2
       a =  0.000      CL =  0.3353
      Cm = -0.0892     CD =  0.00553   =>   CDf =  0.00449    CDp =  0.00104

 Side 1 forced transition at x/c =  0.3000   34
 Side 2  free  transition at x/c =  0.2908   31

   5   rms: 0.3418E-02   max: 0.4815E-01   D at   31  2
       a =  0.000      CL =  0.3351
      Cm = -0.0891     CD =  0.00555   =>   CDf =  0.00451    CDp =  0.00105

 Side 1 forced transition at x/c =  0.3000   34
 Side 2  free  transition at x/c =  0.2939   31

   6   rms: 0.5417E-03   max: -.7310E-02   D at   31  2
       a =  0.000      CL =  0.3351
      Cm = -0.0891     CD =  0.00555   =>   CDf =  0.00450    CDp =  0.00105

 Side 1 forced transition at x/c =  0.3000   34
 Side 2  free  transition at x/c =  0.2936   31

   7   rms: 0.4554E-05   max: -.6181E-04   D at   31  2
       a =  0.000      CL =  0.3351
      Cm = -0.0891     CD =  0.00555   =>   CDf =  0.00450    CDp =  0.00105
      9.000    2.6235   0.005552   0.000000   0.000000   0.000000    0.3000     #

 Point added to stored polar  1
 Point written to save file  polar.dat                                       
 Dump file unspecified or not available
 Calculating wake trajectory ...
 Calculating source influence matrix ...

 Solving BL system ...

 Side 1 forced transition at x/c =  0.3000   34
 Side 2  free  transition at x/c =  0.2936   31

   1   rms: 0.2726E+01   max: 0.3264E+02   D at   31  2   RLX: 0.025
       a =  1.667      CL =  0.3411
      Cm = -0.0896     CD =  0.00545   =>   CDf =  0.00450    CDp =  0.00095

 Side 1  free  transition at x/c =  0.3000   34
 Side 2  free  transition at x/c =  0.3000   31

   2   rms: 0.2830E+00   max: -.6409E+00   n at   30  2   RLX: 0.757
       a =  1.667      CL =  0.4895
      Cm = -0.0914     CD =  0.00559   =>   CDf =  0.00447    CDp =  0.00112

 Side 1  free  transition at x/c =  0.1284   23
 Side 2 forced transition at x/c =  0.3000   30

   3   rms: 0.1168E+00   max: 0.2484E+01   C at   23  1   RLX: 0.604
       a =  1.667      CL =  0.5143
      Cm = -0.0912     CD =  0.00643   =>   CDf =  0.00499    CDp =  0.00144

 Side 1  free  transition at x/c =  0.1040   23
 Side 2 forced transition at x/c =  0.3000   29

   4   rms: 0.4723E-01   max: 0.5934E+00   D at    2  1
       a =  1.667      CL =  0.5304
      Cm = -0.0910     CD =  0.00656   =>   CDf =  0.00510    CDp =  0.00146

 Side 1  free  transition at x/c =  0.0954   22
 Side 2 forced transition at x/c =  0.3000   29

   5   rms: 0.3045E-02   max: 0.3960E-01   D at   22  1
       a =  1.667      CL =  0.5305
      Cm = -0.0910     CD =  0.00655   =>   CDf =  0.00513    CDp =  0.00142

 Side 1  free  transition at x/c =  0.0964   22
 Side 2 forced transition at x/c =  0.3000   29

   6   rms: 0.5885E-04   max: -.7391E-03   D at   22  1
       a =  1.667      CL =  0.5305
      Cm = -0.0910     CD =  0.00655   =>   CDf =  0.00513    CDp =  0.00142
      9.000    2.7951   0.006547   0.000000   0.000000   0.000000    0.0964     #

 Point added to stored polar  1
 Point written to save file  polar.dat                                       
 Dump file unspecified or not available
 Calculating wake trajectory ...
 Calculating source influence matrix ...

 Solving BL system ...

 Side 1  free  transition at x/c =  0.0964   22
 Side 2 forced transition at x/c =  0.3000   29

   1   rms: 0.5133E+00   max: 0.5024E+01   C at   22  1   RLX: 0.104
       a =  3.333      CL =  0.5504
      Cm = -0.0911     CD =  0.00667   =>   CDf =  0.00512    CDp =  0.00155

 Side 1  free  transition at x/c =  0.0860   21
 Side 2 forced transition at x/c =  0.3000   29

   2   rms: 0.4877E+00   max: 0.9524E+01   C at   21  1   RLX: 0.153
       a =  3.333      CL =  0.5771
      Cm = -0.0913     CD =  0.00674   =>   CDf =  0.00516    CDp =  0.00158

 Side 1  free  transition at x/c =  0.0698   20
 Side 2 forced transition at x/c =  0.3000   29

   3   rms: 0.3859E+00   max: -.3619E+01   D at   20  1   RLX: 0.138
       a =  3.333      CL =  0.5972
      Cm = -0.0915     CD =  0.00689   =>   CDf =  0.00522    CDp =  0.00167

 Side 1  free  transition at x/c =  0.0614   19
At line 135 of file ../src/userio.f (unit = 5, file = 'stdin')
Fortran runtime error: End of file

Error termination. Backtrace:
#0  0x706959223960 in ???
#1  0x7069592244d9 in ???
#2  0x70695922510f in ???
#3  0x70695947817b in ???
#4  0x706959478752 in ???
#5  0x706959474f1b in ???
#6  0x706959479e3c in ???
#7  0x70695947ae55 in ???
#8  0x55a7fd22f9f1 in ???
#9  0x55a7fd19513a in ???
#10  0x55a7fd18b758 in ???
#11  0x706958e29d8f in __libc_start_call_main
	at ../sysdeps/nptl/libc_start_call_main.h:58
#12  0x706958e29e3f in __libc_start_main_impl
	at ../csu/libc-start.c:392
#13  0x55a7fd18b784 in ???
#14  0xffffffffffffffff in ???
 Side 2 forced transition at x/c =  0.3000   29

   4   rms: 0.2628E+00   max: 0.4828E+01   C at   19  1   RLX: 0.311
       a =  3.333      CL =  0.6376
      Cm = -0.0918     CD =  0.00695   =>   CDf =  0.00521    CDp =  0.00174

 Side 1  free  transition at x/c =  0.0469   19
 Side 2 forced transition at x/c =  0.3000   28

   5   rms: 0.1863E+00   max: 0.1784E+01   C at   19  1   RLX: 0.320
       a =  3.333      CL =  0.6655
      Cm = -0.0920     CD =  0.00715   =>   CDf =  0.00531    CDp =  0.00184

 Side 1  free  transition at x/c =  0.0391   18
 Side 2 forced transition at x/c =  0.3000   28

   6   rms: 0.9882E-01   max: 0.1222E+01   C at   18  1
       a =  3.333      CL =  0.7264
      Cm = -0.0925     CD =  0.00729   =>   CDf =  0.00528    CDp =  0.00201

 Side 1  free  transition at x/c =  0.0289   18
 Side 2 forced transition at x/c =  0.3000   27

   7   rms: 0.3142E-02   max: -.3845E-01   D at   18  1
       a =  3.333      CL =  0.7259
      Cm = -0.0924     CD =  0.00736   =>   CDf =  0.00540    CDp =  0.00196

 Side 1  free  transition at x/c =  0.0287   18
 Side 2 forced transition at x/c =  0.3000   27

   8   rms: 0.2286E-03   max: -.1976E-02   D at    4  1
       a =  3.333      CL =  0.7259
      Cm = -0.0924     CD =  0.00736   =>   CDf =  0.00540    CDp =  0.00196

 Side 1  free  transition at x/c =  0.0287   18
 Side 2 forced transition at x/c =  0.3000   27

   9   rms: 0.3118E-06   max: -.2310E-05   C at   22  1
       a =  3.333      CL =  0.7259
      Cm = -0.0924     CD =  0.00736   =>   CDf =  0.00540    CDp =  0.00196
      9.000    3.1968   0.007356   0.000000   0.000000   0.000000    0.0287     #

 Point added to stored polar  1
 Point written to save file  polar.dat                                       
 Dump file unspecified or not available
 Calculating wake trajectory ...
 Calculating source influence matrix ...

 Solving BL system ...

 Side 1  free  transition at x/c =  0.0287   18
 Side 2 forced transition at x/c =  0.3000   27

   1   rms: 0.3849E+00   max: 0.4267E+01   C at   18  1   RLX: 0.146
       a =  5.000      CL =  0.7538
      Cm = -0.0925     CD =  0.00750   =>   CDf =  0.00539    CDp =  0.00211

 Side 1  free  transition at x/c =  0.0235   18
 Side 2 forced transition at x/c =  0.3000   27

   2   rms: 0.2419E+00   max: 0.1111E+00   D at   83  2   RLX: 0.884
       a =  5.000      CL =  0.9020
      Cm = -0.0932     CD =  0.00801   =>   CDf =  0.00534    CDp =  0.00268

 Side 1  free  transition at x/c =  0.0135   17
 Side 2 forced transition at x/c =  0.3000   26

   3   rms: 0.3335E-01   max: 0.2938E+00   n at   16  1
       a =  5.000      CL =  0.9199
      Cm = -0.0930     CD =  0.00823   =>   CDf =  0.00550    CDp =  0.00273

 Side 1  free  transition at x/c =  0.0122   16
 Side 2 forced transition at x/c =  0.3000   26

   4   rms: 0.4690E-02   max: -.6917E-01   C at   16  1
       a =  5.000      CL =  0.9200
      Cm = -0.0930     CD =  0.00821   =>   CDf =  0.00550    CDp =  0.00271

 Side 1  free  transition at x/c =  0.0123   16
 Side 2 forced transition at x/c =  0.3000   26

   5   rms: 0.3993E-04   max: -.8390E-03   D at   16  1
       a =  5.000      CL =  0.9200
      Cm = -0.0930     CD =  0.00821   =>   CDf =  0.00550    CDp =  0.00271
      9.000    3.7664   0.008213   0.000000   0.000000   0.000000    0.0123     #

 Point added to stored polar  1
 Point written to save file  polar.dat                                       
 Dump file unspecified or not available

.OPERva   c>  
 Enter filename:  main_airfoil_merged_31.bl                                                       

.OPERva   c>  
 XFOIL   c>  