WARNING: The current SST-1994m model is inconsistent with literature. We recommend using the SST-2003m model.
In SU2 v8 the 2003m model will become default, and the inconsistency will be fixed.

-------------------------------------------------------------------------
|    ___ _   _ ___                                                      |
|   / __| | | |_  )   Release 7.4.0 "Blackbird"                         |
|   \__ \ |_| |/ /                                                      |
|   |___/\___//___|   Suite (Computational Fluid Dynamics Code)         |
|                                                                       |
-------------------------------------------------------------------------
| SU2 Project Website: https://su2code.github.io                        |
|                                                                       |
| The SU2 Project is maintained by the SU2 Foundation                   |
| (http://su2foundation.org)                                            |
-------------------------------------------------------------------------
| Copyright 2012-2022, SU2 Contributors                                 |
|                                                                       |
| SU2 is free software; you can redistribute it and/or                  |
| modify it under the terms of the GNU Lesser General Public            |
| License as published by the Free Software Foundation; either          |
| version 2.1 of the License, or (at your option) any later version.    |
|                                                                       |
| SU2 is distributed in the hope that it will be useful,                |
| but WITHOUT ANY WARRANTY; without even the implied warranty of        |
| MERCHANTABILITY or FITNESS FOR A PARTICULAR PURPOSE. See the GNU      |
| Lesser General Public License for more details.                       |
|                                                                       |
| You should have received a copy of the GNU Lesser General Public      |
| License along with SU2. If not, see <http://www.gnu.org/licenses/>.   |
-------------------------------------------------------------------------
WARNING: The current SST-1994m model is inconsistent with literature. We recommend using the SST-2003m model.
In SU2 v8 the 2003m model will become default, and the inconsistency will be fixed.

Parsing config file for zone 0
WARNING: The current SST-1994m model is inconsistent with literature. We recommend using the SST-2003m model.
In SU2 v8 the 2003m model will become default, and the inconsistency will be fixed.

----------------- Physical Case Definition ( Zone 0 ) -------------------
Compressible RANS equations.
Turbulence model: Menter's k-omega SST-1994m with no production modification.
Hybrid RANS/LES: No Hybrid RANS/LES
Mach number: 0.21.
Angle of attack (AoA): -4 deg, and angle of sideslip (AoS): 0 deg.
Reynolds number: 1.06749e+07. Reference length 2.62.
Reading and writing binary SU2 native restart files.
Read flow solution from: solution_flow.
Non-Dimensional simulation (V=Mach, Rho=1.0, T=1.0 at the farfield).
The reference area is 2.62 m^2.
The semi-span will be computed using the max y(3D) value.
The reference length is 2.62 m.
Reference origin for moment evaluation is (0, 0, 0).
Surface(s) where the force coefficients are evaluated: wall.

Surface(s) plotted in the output file: wall.
Input mesh file name: su2meshEx.su2

--------------- Space Numerical Integration ( Zone 0 ) ------------------
Roe (with entropy fix = 1e-05) solver for the flow inviscid terms.
Standard Roe without low-dissipation function.
Second order integration in space, with slope limiter.
Van Albada slope-limiting method implemented by edges.
Scalar upwind solver for the turbulence model.
First order integration in space.
Average of gradients with correction (viscous flow terms).
Average of gradients with correction (viscous turbulence terms).
Gradient for upwind reconstruction: Green-Gauss.
Gradient for viscous and source terms: Green-Gauss.

--------------- Time Numerical Integration  ( Zone 0 ) ------------------
Local time stepping (steady state simulation).
Euler implicit method for the flow equations.
FGMRES is used for solving the linear system.
Using a ILU(0) preconditioning.
Convergence criteria of the linear solver: 0.2.
Max number of linear iterations: 4.
CFL adaptation. Factor down: 0.1, factor up: 1.2,
                lower limit: 25, upper limit: 1000,
                acceptable linear residual: 0.001.
Courant-Friedrichs-Lewy number:       25
Euler implicit time integration for the turbulence model.

------------------ Convergence Criteria  ( Zone 0 ) ---------------------
Maximum number of solver subiterations: 25000.
Begin convergence monitoring at iteration 10.
Residual minimum value: 1e-11.5.
Cauchy series min. value: 5e-07.
Number of Cauchy elements: 500.
Begin windowed time average at iteration 0.

-------------------- Output Information ( Zone 0 ) ----------------------
File writing frequency: 
+------------------------------------+
|                     File| Frequency|
+------------------------------------+
|                  RESTART|       100|
|                 PARAVIEW|       100|
|         SURFACE_PARAVIEW|       100|
+------------------------------------+
Writing the convergence history file every 1 inner iterations.
Writing the screen convergence history every 25 inner iterations.
The tabular file format is CSV (.csv).
Convergence history file name: history.
Forces breakdown file name: forces_breakdown.dat.
Surface file name: surface.
Volume file name: vol_solution.
Restart file name: restart.dat.

------------- Config File Boundary Information ( Zone 0 ) ---------------
+-----------------------------------------------------------------------+
|                        Marker Type|                        Marker Name|
+-----------------------------------------------------------------------+
|                          Far-field|                          far-field|
+-----------------------------------------------------------------------+
|                     Heat flux wall|                               wall|
+-----------------------------------------------------------------------+

-------------------- Output Preprocessing ( Zone 0 ) --------------------

WARNING: SURFACE_PRESSURE_DROP can only be computed for at least 2 surfaces (outlet, inlet, ...)

  Info: Ignoring the following screen output fields:
  RMS_NU_TILDE
Screen output fields: INNER_ITER, RMS_DENSITY, RMS_MOMENTUM-X, RMS_MOMENTUM-Y, RMS_ENERGY, DRAG, LIFT, MOMENT_Z, LINSOL_RESIDUAL
History output group(s): ITER, RMS_RES, AERO_COEFF
Convergence field(s): LIFT
Warning: No (valid) fields chosen for time convergence monitoring. Time convergence monitoring inactive.
Volume output fields: COORDINATES, SOLUTION, PRIMITIVE

------------------- Geometry Preprocessing ( Zone 0 ) -------------------
Two dimensional problem.
66015 grid points before partitioning.
65610 volume elements before partitioning.
2 surface markers.
405 boundary elements in index 0 (Marker = far-field).
405 boundary elements in index 1 (Marker = wall).
Executing the partitioning functions.
Building the graph adjacency structure.
Calling ParMETIS... graph partitioning complete (888 edge cuts).
Distributing ParMETIS coloring.
Rebalancing vertices.
Rebalancing volume element connectivity.
Rebalancing markers and surface elements.
67791 vertices including ghost points. 
66494 interior elements including halo cells. 
66494 quadrilaterals.
Establishing MPI communication patterns.
Setting point connectivity.
Renumbering points (Reverse Cuthill McKee Ordering).
Recomputing point connectivity.
Setting element connectivity.
Checking the numerical grid orientation.
All volume elements are correctly orientend.
All surface elements are correctly orientend.
Identifying edges and vertices.
Setting the control volume structure.
Area of the computational grid: 177681.
Searching for the closest normal neighbors to the surfaces.
Storing a mapping from global to local point index.
Compute the surface curvature.
Max K: 1084.38. Mean K: 3.59037. Standard deviation K: 49.7608.
Checking for periodicity.
Computing mesh quality statistics for the dual control volumes.
+--------------------------------------------------------------+
|           Mesh Quality Metric|        Minimum|        Maximum|
+--------------------------------------------------------------+
|    Orthogonality Angle (deg.)|         82.757|             90|
|     CV Face Area Aspect Ratio|        1.00372|        11629.9|
|           CV Sub-Volume Ratio|              1|        2.23945|
+--------------------------------------------------------------+
Finding max control volume width.
Communicating number of neighbors.
Wetted area = 5.32649 m.
Area projection in the x-plane = 0.29702 m, y-plane = 2.61984 m.
Max. coordinate in the x-direction = 2.62 m, y-direction = 0.165086 m.
Min. coordinate in the x-direction = 0 m, y-direction = -0.119236 m.
Computing wall distances.

-------------------- Solver Preprocessing ( Zone 0 ) --------------------
Viscous flow: Computing pressure using the ideal gas law
based on the free-stream temperature and a density computed
from the Reynolds number.
Force coefficients computed using free-stream values.

-- Models:
+------------------------------------------------------------------------------+
|          Viscosity Model|        Conductivity Model|              Fluid Model|
+------------------------------------------------------------------------------+
|               SUTHERLAND|          CONSTANT_PRANDTL|             STANDARD_AIR|
+------------------------------------------------------------------------------+
-- Fluid properties:
+------------------------------------------------------------------------------+
|                  Name|    Dim. value|    Ref. value|      Unit|Non-dim. value|
+------------------------------------------------------------------------------+
|        Ref. Viscosity|     1.716e-05|       334.862|   N.s/m^2|   5.12451e-08|
|      Sutherland Temp.|        273.15|       275.159|         K|      0.992697|
|     Sutherland Const.|         110.4|       275.159|         K|      0.401222|
+------------------------------------------------------------------------------+
|        Prandtl (Lam.)|             -|             -|         -|          0.72|
|       Prandtl (Turb.)|             -|             -|         -|           0.9|
+------------------------------------------------------------------------------+
|          Gas Constant|       287.058|       401.881|  N.m/kg.K|      0.714286|
|      Spec. Heat Ratio|             -|             -|         -|           1.4|
+------------------------------------------------------------------------------+
-- Initial and free-stream conditions:
+------------------------------------------------------------------------------+
|                  Name|    Dim. value|    Ref. value|      Unit|Non-dim. value|
+------------------------------------------------------------------------------+
|       Static Pressure|       79538.7|        111354|        Pa|      0.714286|
|               Density|       1.00699|       1.00699|    kg/m^3|             1|
|           Temperature|       275.159|       275.159|         K|             1|
|          Total Energy|        199923|        110581|   m^2/s^2|       1.80793|
|            Velocity-X|       69.6628|       332.538|       m/s|      0.209488|
|            Velocity-Y|       -4.8713|       332.538|       m/s|    -0.0146489|
|    Velocity Magnitude|       69.8329|       332.538|       m/s|          0.21|
+------------------------------------------------------------------------------+
|             Viscosity|   1.72593e-05|       334.862|   N.s/m^2|   5.15415e-08|
|          Conductivity|             -|        134575|   W/m^2.K|             -|
|     Turb. Kin. Energy|       18.2874|        110581|   m^2/s^2|   0.000165375|
|     Spec. Dissipation|        106697|       332.538|       1/s|       320.858|
+------------------------------------------------------------------------------+
|           Mach Number|             -|             -|         -|          0.21|
|       Reynolds Number|             -|             -|         -|   1.06749e+07|
+------------------------------------------------------------------------------+
Initialize Jacobian structure (Navier-Stokes). MG level: 0.
Initialize Jacobian structure (SST model).

------------------- Numerics Preprocessing ( Zone 0 ) -------------------

----------------- Integration Preprocessing ( Zone 0 ) ------------------

------------------- Iteration Preprocessing ( Zone 0 ) ------------------
Euler/Navier-Stokes/RANS fluid iteration.

------------------------------ Begin Solver -----------------------------

Simulation Run using the Single-zone Driver
WARNING: SU2 was not compiled for an AVX-capable architecture.
+--------------------------------------------------------------------------------------------------------------------+
|  Inner_Iter|    rms[Rho]|   rms[RhoU]|   rms[RhoV]|   rms[RhoE]|          CD|          CL|         CMz|   LinSolRes|
+--------------------------------------------------------------------------------------------------------------------+
|           0|   -3.420406|   -3.725734|   -3.447808|   -3.016605|    0.003524|   -0.279612|    0.005505|   -0.797100|
|          25|   -5.243230|   -4.876510|   -4.767202|   -4.847343|   -0.001468|   -0.208267|    0.040803|   -0.664838|
|          50|   -5.858134|   -4.959408|   -5.088599|   -5.338114|    0.002146|   -0.224281|    0.023318|   -0.923360|
|          75|   -6.015012|   -5.091394|   -5.501322|   -5.528988|    0.003089|   -0.118591|    0.053200|   -0.664479|
|         100|   -6.298323|   -5.246933|   -5.805498|   -5.718899|    0.009501|   -0.145377|    0.036470|   -0.597403|
+-----------------------------------------------------------------------+
|        File Writing Summary       |              Filename             |
+-----------------------------------------------------------------------+
|SU2 binary restart                 |restart.dat                        |
|Paraview                           |vol_solution.vtu                   |
|Paraview surface                   |surface.vtu                        |
+-----------------------------------------------------------------------+
+--------------------------------------------------------------------------------------------------------------------+
|  Inner_Iter|    rms[Rho]|   rms[RhoU]|   rms[RhoV]|   rms[RhoE]|          CD|          CL|         CMz|   LinSolRes|
+--------------------------------------------------------------------------------------------------------------------+
|         125|   -6.559312|   -5.453976|   -5.994686|   -5.960278|    0.009374|   -0.187716|    0.026753|   -0.853561|
|         150|   -6.669419|   -5.752649|   -6.363625|   -6.164430|    0.007353|   -0.178897|    0.031967|   -0.637819|
|         175|   -6.967731|   -6.058409|   -6.525123|   -6.476814|    0.007386|   -0.166133|    0.035663|   -0.668457|
|         200|   -7.332956|   -6.372035|   -6.941670|   -6.829227|    0.007890|   -0.162570|    0.036413|   -0.679015|
+-----------------------------------------------------------------------+
|        File Writing Summary       |              Filename             |
+-----------------------------------------------------------------------+
|SU2 binary restart                 |restart.dat                        |
|Paraview                           |vol_solution.vtu                   |
|Paraview surface                   |surface.vtu                        |
+-----------------------------------------------------------------------+
+--------------------------------------------------------------------------------------------------------------------+
|  Inner_Iter|    rms[Rho]|   rms[RhoU]|   rms[RhoV]|   rms[RhoE]|          CD|          CL|         CMz|   LinSolRes|
+--------------------------------------------------------------------------------------------------------------------+
|         225|   -7.538038|   -6.633588|   -7.102715|   -7.037286|    0.008011|   -0.163512|    0.036082|   -0.655251|
|         250|   -7.674324|   -6.781452|   -7.246995|   -7.180293|    0.007985|   -0.163560|    0.036235|   -0.722903|
|         275|   -7.632149|   -6.927119|   -7.488381|   -7.194335|    0.007955|   -0.163340|    0.036315|   -0.694834|
|         300|   -7.883850|   -7.107256|   -7.656933|   -7.426665|    0.007929|   -0.162322|    0.036708|   -0.861754|
+-----------------------------------------------------------------------+
|        File Writing Summary       |              Filename             |
+-----------------------------------------------------------------------+
|SU2 binary restart                 |restart.dat                        |
|Paraview                           |vol_solution.vtu                   |
|Paraview surface                   |surface.vtu                        |
+-----------------------------------------------------------------------+
+--------------------------------------------------------------------------------------------------------------------+
|  Inner_Iter|    rms[Rho]|   rms[RhoU]|   rms[RhoV]|   rms[RhoE]|          CD|          CL|         CMz|   LinSolRes|
+--------------------------------------------------------------------------------------------------------------------+
|         325|   -8.171138|   -7.270013|   -7.721653|   -7.677108|    0.007942|   -0.161863|    0.036848|   -0.707297|
|         350|   -8.304424|   -7.389964|   -7.827137|   -7.810570|    0.007938|   -0.161333|    0.037045|   -0.672190|
|         375|   -8.461278|   -7.490070|   -7.972087|   -7.958565|    0.007960|   -0.161198|    0.037043|   -0.616401|
|         400|   -8.627795|   -7.589504|   -8.119417|   -8.088322|    0.007974|   -0.161040|    0.037096|   -0.606417|
+-----------------------------------------------------------------------+
|        File Writing Summary       |              Filename             |
+-----------------------------------------------------------------------+
|SU2 binary restart                 |restart.dat                        |
|Paraview                           |vol_solution.vtu                   |
|Paraview surface                   |surface.vtu                        |
+-----------------------------------------------------------------------+
+--------------------------------------------------------------------------------------------------------------------+
|  Inner_Iter|    rms[Rho]|   rms[RhoU]|   rms[RhoV]|   rms[RhoE]|          CD|          CL|         CMz|   LinSolRes|
+--------------------------------------------------------------------------------------------------------------------+
|         425|   -8.696276|   -7.686720|   -8.194467|   -8.157995|    0.007976|   -0.160912|    0.037127|   -0.610498|
|         450|   -8.698247|   -7.795458|   -8.216257|   -8.198672|    0.007986|   -0.160928|    0.037108|   -0.604816|
|         475|   -8.724294|   -7.877353|   -8.262404|   -8.257434|    0.007985|   -0.160806|    0.037165|   -0.614670|
|         500|   -8.804330|   -7.913812|   -8.356372|   -8.349698|    0.007985|   -0.160750|    0.037176|   -0.596984|
+-----------------------------------------------------------------------+
|        File Writing Summary       |              Filename             |
+-----------------------------------------------------------------------+
|SU2 binary restart                 |restart.dat                        |
|Paraview                           |vol_solution.vtu                   |
|Paraview surface                   |surface.vtu                        |
+-----------------------------------------------------------------------+
+--------------------------------------------------------------------------------------------------------------------+
|  Inner_Iter|    rms[Rho]|   rms[RhoU]|   rms[RhoV]|   rms[RhoE]|          CD|          CL|         CMz|   LinSolRes|
+--------------------------------------------------------------------------------------------------------------------+
|         525|   -8.911029|   -7.957119|   -8.495877|   -8.459469|    0.007984|   -0.160706|    0.037189|   -0.596702|
|         550|   -9.041894|   -8.026614|   -8.652102|   -8.575279|    0.007978|   -0.160584|    0.037233|   -0.611793|
|         575|   -9.149688|   -8.119625|   -8.772282|   -8.666629|    0.007981|   -0.160561|    0.037218|   -0.623416|
|         600|   -9.226260|   -8.232032|   -8.847092|   -8.753419|    0.007980|   -0.160529|    0.037215|   -0.662916|
+-----------------------------------------------------------------------+
|        File Writing Summary       |              Filename             |
+-----------------------------------------------------------------------+
|SU2 binary restart                 |restart.dat                        |
|Paraview                           |vol_solution.vtu                   |
|Paraview surface                   |surface.vtu                        |
+-----------------------------------------------------------------------+
+--------------------------------------------------------------------------------------------------------------------+
|  Inner_Iter|    rms[Rho]|   rms[RhoU]|   rms[RhoV]|   rms[RhoE]|          CD|          CL|         CMz|   LinSolRes|
+--------------------------------------------------------------------------------------------------------------------+
|         625|   -9.289003|   -8.340412|   -8.914792|   -8.826579|    0.007978|   -0.160492|    0.037210|   -0.760268|
|         650|   -9.358250|   -8.421647|   -8.964645|   -8.896394|    0.007983|   -0.160538|    0.037165|   -0.612870|
|         675|   -9.367580|   -8.456378|   -9.002448|   -8.918107|    0.007984|   -0.160561|    0.037141|   -0.604595|
|         700|   -9.348850|   -8.454672|   -9.053785|   -8.913239|    0.007986|   -0.160621|    0.037102|   -0.761959|
+-----------------------------------------------------------------------+
|        File Writing Summary       |              Filename             |
+-----------------------------------------------------------------------+
|SU2 binary restart                 |restart.dat                        |
|Paraview                           |vol_solution.vtu                   |
|Paraview surface                   |surface.vtu                        |
+-----------------------------------------------------------------------+
+--------------------------------------------------------------------------------------------------------------------+
|  Inner_Iter|    rms[Rho]|   rms[RhoU]|   rms[RhoV]|   rms[RhoE]|          CD|          CL|         CMz|   LinSolRes|
+--------------------------------------------------------------------------------------------------------------------+
|         725|   -9.406958|   -8.439283|   -9.097733|   -8.973003|    0.007989|   -0.160681|    0.037071|   -0.751112|
|         750|   -9.445068|   -8.443578|   -9.142746|   -9.010760|    0.007989|   -0.160731|    0.037046|   -0.555775|
|         775|   -9.441116|   -8.480677|   -9.185240|   -9.032495|    0.007991|   -0.160798|    0.037015|   -0.660461|
|         800|   -9.485005|   -8.542550|   -9.245280|   -9.105056|    0.007991|   -0.160843|    0.036998|   -0.646680|
+-----------------------------------------------------------------------+
|        File Writing Summary       |              Filename             |
+-----------------------------------------------------------------------+
|SU2 binary restart                 |restart.dat                        |
|Paraview                           |vol_solution.vtu                   |
|Paraview surface                   |surface.vtu                        |
+-----------------------------------------------------------------------+
+--------------------------------------------------------------------------------------------------------------------+
|  Inner_Iter|    rms[Rho]|   rms[RhoU]|   rms[RhoV]|   rms[RhoE]|          CD|          CL|         CMz|   LinSolRes|
+--------------------------------------------------------------------------------------------------------------------+
|         825|   -9.525208|   -8.619609|   -9.316254|   -9.180424|    0.007992|   -0.160896|    0.036975|   -0.641391|
|         850|   -9.572800|   -8.690934|   -9.363983|   -9.254198|    0.007994|   -0.160954|    0.036951|   -0.641806|
|         875|   -9.611537|   -8.743508|   -9.399651|   -9.306731|    0.007994|   -0.160997|    0.036935|   -0.643498|
|         900|   -9.631266|   -8.775542|   -9.411267|   -9.327018|    0.007996|   -0.161049|    0.036913|   -0.643657|
+-----------------------------------------------------------------------+
|        File Writing Summary       |              Filename             |
+-----------------------------------------------------------------------+
|SU2 binary restart                 |restart.dat                        |
|Paraview                           |vol_solution.vtu                   |
|Paraview surface                   |surface.vtu                        |
+-----------------------------------------------------------------------+
+--------------------------------------------------------------------------------------------------------------------+
|  Inner_Iter|    rms[Rho]|   rms[RhoU]|   rms[RhoV]|   rms[RhoE]|          CD|          CL|         CMz|   LinSolRes|
+--------------------------------------------------------------------------------------------------------------------+
|         925|   -9.652164|   -8.794717|   -9.400542|   -9.344816|    0.007998|   -0.161100|    0.036894|   -0.636785|
|         950|   -9.657216|   -8.808066|   -9.388367|   -9.346623|    0.007999|   -0.161143|    0.036877|   -0.625283|
|         975|   -9.659733|   -8.815426|   -9.378844|   -9.344412|    0.008002|   -0.161193|    0.036857|   -0.617807|
|        1000|   -9.668281|   -8.820392|   -9.371939|   -9.350288|    0.008004|   -0.161238|    0.036840|   -0.609468|
+-----------------------------------------------------------------------+
|        File Writing Summary       |              Filename             |
+-----------------------------------------------------------------------+
|SU2 binary restart                 |restart.dat                        |
|Paraview                           |vol_solution.vtu                   |
|Paraview surface                   |surface.vtu                        |
+-----------------------------------------------------------------------+
+--------------------------------------------------------------------------------------------------------------------+
|  Inner_Iter|    rms[Rho]|   rms[RhoU]|   rms[RhoV]|   rms[RhoE]|          CD|          CL|         CMz|   LinSolRes|
+--------------------------------------------------------------------------------------------------------------------+
|        1025|   -9.670723|   -8.826009|   -9.373837|   -9.349998|    0.008006|   -0.161282|    0.036824|   -0.603906|
|        1050|   -9.682964|   -8.832182|   -9.382681|   -9.359897|    0.008009|   -0.161328|    0.036806|   -0.601035|
|        1075|   -9.697959|   -8.838852|   -9.397918|   -9.373832|    0.008011|   -0.161369|    0.036791|   -0.600381|
|        1100|   -9.709077|   -8.847394|   -9.416602|   -9.383461|    0.008013|   -0.161412|    0.036774|   -0.603696|
+-----------------------------------------------------------------------+
|        File Writing Summary       |              Filename             |
+-----------------------------------------------------------------------+
|SU2 binary restart                 |restart.dat                        |
|Paraview                           |vol_solution.vtu                   |
|Paraview surface                   |surface.vtu                        |
+-----------------------------------------------------------------------+
+--------------------------------------------------------------------------------------------------------------------+
|  Inner_Iter|    rms[Rho]|   rms[RhoU]|   rms[RhoV]|   rms[RhoE]|          CD|          CL|         CMz|   LinSolRes|
+--------------------------------------------------------------------------------------------------------------------+
|        1125|   -9.727710|   -8.857919|   -9.434259|   -9.400158|    0.008016|   -0.161455|    0.036759|   -0.608158|
|        1150|   -9.745072|   -8.868750|   -9.454401|   -9.416372|    0.008019|   -0.161493|    0.036745|   -0.612943|
|        1175|   -9.759508|   -8.879855|   -9.472495|   -9.429520|    0.008021|   -0.161533|    0.036730|   -0.618726|
|        1200|   -9.778392|   -8.891976|   -9.486833|   -9.447035|    0.008024|   -0.161571|    0.036716|   -0.624005|
+-----------------------------------------------------------------------+
|        File Writing Summary       |              Filename             |
+-----------------------------------------------------------------------+
|SU2 binary restart                 |restart.dat                        |
|Paraview                           |vol_solution.vtu                   |
|Paraview surface                   |surface.vtu                        |
+-----------------------------------------------------------------------+
+--------------------------------------------------------------------------------------------------------------------+
|  Inner_Iter|    rms[Rho]|   rms[RhoU]|   rms[RhoV]|   rms[RhoE]|          CD|          CL|         CMz|   LinSolRes|
+--------------------------------------------------------------------------------------------------------------------+
|        1225|   -9.793813|   -8.904025|   -9.501495|   -9.461672|    0.008026|   -0.161607|    0.036703|   -0.629477|
|        1250|   -9.808900|   -8.915473|   -9.514921|   -9.475736|    0.008029|   -0.161643|    0.036689|   -0.635370|
|        1275|   -9.825032|   -8.927057|   -9.527666|   -9.491193|    0.008032|   -0.161677|    0.036677|   -0.641631|
|        1300|   -9.838309|   -8.938650|   -9.541816|   -9.504026|    0.008034|   -0.161710|    0.036665|   -0.649397|
+-----------------------------------------------------------------------+
|        File Writing Summary       |              Filename             |
+-----------------------------------------------------------------------+
|SU2 binary restart                 |restart.dat                        |
|Paraview                           |vol_solution.vtu                   |
|Paraview surface                   |surface.vtu                        |
+-----------------------------------------------------------------------+
+--------------------------------------------------------------------------------------------------------------------+
|  Inner_Iter|    rms[Rho]|   rms[RhoU]|   rms[RhoV]|   rms[RhoE]|          CD|          CL|         CMz|   LinSolRes|
+--------------------------------------------------------------------------------------------------------------------+
|        1325|   -9.854481|   -8.949768|   -9.557041|   -9.519624|    0.008036|   -0.161742|    0.036653|   -0.657254|
|        1350|   -9.871012|   -8.960561|   -9.574395|   -9.536267|    0.008039|   -0.161772|    0.036642|   -0.664723|
|        1375|   -9.886141|   -8.971503|   -9.593186|   -9.551525|    0.008041|   -0.161801|    0.036632|   -0.673246|
|        1400|   -9.903916|   -8.982541|   -9.612178|   -9.569475|    0.008043|   -0.161829|    0.036621|   -0.682846|
+-----------------------------------------------------------------------+
|        File Writing Summary       |              Filename             |
+-----------------------------------------------------------------------+
|SU2 binary restart                 |restart.dat                        |
|Paraview                           |vol_solution.vtu                   |
|Paraview surface                   |surface.vtu                        |
+-----------------------------------------------------------------------+
+--------------------------------------------------------------------------------------------------------------------+
|  Inner_Iter|    rms[Rho]|   rms[RhoU]|   rms[RhoV]|   rms[RhoE]|          CD|          CL|         CMz|   LinSolRes|
+--------------------------------------------------------------------------------------------------------------------+
|        1425|   -9.920089|   -8.993252|   -9.632639|   -9.586415|    0.008046|   -0.161855|    0.036612|   -0.694100|
|        1450|   -9.925196|   -9.004174|   -9.652642|   -9.587056|    0.008048|   -0.161881|    0.036602|   -0.770669|
|        1475|   -9.970609|   -9.015250|   -9.678818|   -9.645135|    0.008050|   -0.161906|    0.036593|   -0.702579|
|        1500|   -9.968194|   -9.025398|   -9.697962|   -9.637947|    0.008052|   -0.161929|    0.036585|   -0.735373|
+-----------------------------------------------------------------------+
|        File Writing Summary       |              Filename             |
+-----------------------------------------------------------------------+
|SU2 binary restart                 |restart.dat                        |
|Paraview                           |vol_solution.vtu                   |
|Paraview surface                   |surface.vtu                        |
+-----------------------------------------------------------------------+
+--------------------------------------------------------------------------------------------------------------------+
|  Inner_Iter|    rms[Rho]|   rms[RhoU]|   rms[RhoV]|   rms[RhoE]|          CD|          CL|         CMz|   LinSolRes|
+--------------------------------------------------------------------------------------------------------------------+
|        1525|   -9.984276|   -9.035275|   -9.718046|   -9.655353|    0.008054|   -0.161951|    0.036577|   -0.748864|
|        1550|   -9.991852|   -9.044990|   -9.733218|   -9.661474|    0.008056|   -0.161972|    0.036569|   -0.507439|
|        1575|   -9.919252|   -9.055920|   -9.734983|   -9.563683|    0.008058|   -0.161994|    0.036561|   -0.789062|
|        1600|  -10.015148|   -9.066269|   -9.785074|   -9.686543|    0.008060|   -0.162012|    0.036554|   -0.781137|
+-----------------------------------------------------------------------+
|        File Writing Summary       |              Filename             |
+-----------------------------------------------------------------------+
|SU2 binary restart                 |restart.dat                        |
|Paraview                           |vol_solution.vtu                   |
|Paraview surface                   |surface.vtu                        |
+-----------------------------------------------------------------------+
+--------------------------------------------------------------------------------------------------------------------+
|  Inner_Iter|    rms[Rho]|   rms[RhoU]|   rms[RhoV]|   rms[RhoE]|          CD|          CL|         CMz|   LinSolRes|
+--------------------------------------------------------------------------------------------------------------------+
|        1625|  -10.036444|   -9.074590|   -9.805669|   -9.710152|    0.008062|   -0.162029|    0.036548|   -0.758011|
|        1650|  -10.007017|   -9.082906|   -9.816536|   -9.671085|    0.008063|   -0.162045|    0.036542|   -0.732227|
|        1675|  -10.052370|   -9.091729|   -9.852302|   -9.732434|    0.008065|   -0.162059|    0.036536|   -0.886165|
|        1700|  -10.057866|   -9.100051|   -9.874746|   -9.738491|    0.008066|   -0.162073|    0.036531|   -0.982099|
+-----------------------------------------------------------------------+
|        File Writing Summary       |              Filename             |
+-----------------------------------------------------------------------+
|SU2 binary restart                 |restart.dat                        |
|Paraview                           |vol_solution.vtu                   |
|Paraview surface                   |surface.vtu                        |
+-----------------------------------------------------------------------+
+--------------------------------------------------------------------------------------------------------------------+
|  Inner_Iter|    rms[Rho]|   rms[RhoU]|   rms[RhoV]|   rms[RhoE]|          CD|          CL|         CMz|   LinSolRes|
+--------------------------------------------------------------------------------------------------------------------+
|        1725|  -10.104186|   -9.108070|   -9.903693|   -9.799293|    0.008068|   -0.162085|    0.036527|   -0.739166|
|        1750|  -10.045574|   -9.115396|   -9.901088|   -9.721453|    0.008069|   -0.162097|    0.036522|   -0.889928|
|        1775|  -10.063526|   -9.123153|   -9.935483|   -9.746921|    0.008070|   -0.162108|    0.036518|   -0.740341|
|        1800|  -10.075974|   -9.130170|   -9.956091|   -9.762822|    0.008072|   -0.162117|    0.036515|   -0.763181|
+-----------------------------------------------------------------------+
|        File Writing Summary       |              Filename             |
+-----------------------------------------------------------------------+
|SU2 binary restart                 |restart.dat                        |
|Paraview                           |vol_solution.vtu                   |
|Paraview surface                   |surface.vtu                        |
+-----------------------------------------------------------------------+
+--------------------------------------------------------------------------------------------------------------------+
|  Inner_Iter|    rms[Rho]|   rms[RhoU]|   rms[RhoV]|   rms[RhoE]|          CD|          CL|         CMz|   LinSolRes|
+--------------------------------------------------------------------------------------------------------------------+
|        1825|  -10.091298|   -9.137247|   -9.986798|   -9.785952|    0.008073|   -0.162126|    0.036511|   -0.732364|
|        1850|  -10.082899|   -9.144001|   -9.987561|   -9.769231|    0.008074|   -0.162134|    0.036508|   -0.708347|
|        1875|  -10.074207|   -9.150406|  -10.003705|   -9.741445|    0.008075|   -0.162140|    0.036505|   -0.704409|
|        1900|  -10.083993|   -9.157281|  -10.027610|   -9.755554|    0.008076|   -0.162146|    0.036503|   -0.722740|
+-----------------------------------------------------------------------+
|        File Writing Summary       |              Filename             |
+-----------------------------------------------------------------------+
|SU2 binary restart                 |restart.dat                        |
|Paraview                           |vol_solution.vtu                   |
|Paraview surface                   |surface.vtu                        |
+-----------------------------------------------------------------------+
+--------------------------------------------------------------------------------------------------------------------+
|  Inner_Iter|    rms[Rho]|   rms[RhoU]|   rms[RhoV]|   rms[RhoE]|          CD|          CL|         CMz|   LinSolRes|
+--------------------------------------------------------------------------------------------------------------------+
|        1925|  -10.093866|   -9.164073|  -10.044737|   -9.771931|    0.008077|   -0.162152|    0.036500|   -0.734230|
|        1950|  -10.080547|   -9.175266|  -10.066347|   -9.764889|    0.008079|   -0.162160|    0.036497|   -0.660561|
|        1975|  -10.138762|   -9.187769|  -10.139596|   -9.853562|    0.008080|   -0.162167|    0.036494|   -0.895731|
|        2000|  -10.128622|   -9.193686|  -10.134520|   -9.825511|    0.008081|   -0.162169|    0.036493|   -0.784872|
+-----------------------------------------------------------------------+
|        File Writing Summary       |              Filename             |
+-----------------------------------------------------------------------+
|SU2 binary restart                 |restart.dat                        |
|Paraview                           |vol_solution.vtu                   |
|Paraview surface                   |surface.vtu                        |
+-----------------------------------------------------------------------+
+--------------------------------------------------------------------------------------------------------------------+
|  Inner_Iter|    rms[Rho]|   rms[RhoU]|   rms[RhoV]|   rms[RhoE]|          CD|          CL|         CMz|   LinSolRes|
+--------------------------------------------------------------------------------------------------------------------+
|        2025|  -10.132155|   -9.200136|  -10.148339|   -9.837196|    0.008082|   -0.162172|    0.036491|   -0.787946|
|        2050|  -10.125135|   -9.207328|  -10.161510|   -9.829421|    0.008083|   -0.162174|    0.036490|   -0.749112|
|        2075|  -10.119227|   -9.216801|  -10.171731|   -9.813871|    0.008084|   -0.162177|    0.036488|   -0.693197|
|        2100|  -10.149514|   -9.226828|  -10.210142|   -9.866638|    0.008085|   -0.162178|    0.036487|   -0.791242|
+-----------------------------------------------------------------------+
|        File Writing Summary       |              Filename             |
+-----------------------------------------------------------------------+
|SU2 binary restart                 |restart.dat                        |
|Paraview                           |vol_solution.vtu                   |
|Paraview surface                   |surface.vtu                        |
+-----------------------------------------------------------------------+
+--------------------------------------------------------------------------------------------------------------------+
|  Inner_Iter|    rms[Rho]|   rms[RhoU]|   rms[RhoV]|   rms[RhoE]|          CD|          CL|         CMz|   LinSolRes|
+--------------------------------------------------------------------------------------------------------------------+
|        2125|  -10.151652|   -9.232701|  -10.214142|   -9.868150|    0.008086|   -0.162178|    0.036487|   -0.780690|
|        2150|  -10.146060|   -9.238988|  -10.225935|   -9.860203|    0.008087|   -0.162178|    0.036486|   -0.700037|
|        2175|  -10.096183|   -9.249070|  -10.179183|   -9.784106|    0.008088|   -0.162176|    0.036486|   -0.821412|
|        2200|  -10.129619|   -9.258671|  -10.214407|   -9.833471|    0.008089|   -0.162175|    0.036485|   -0.647257|
+-----------------------------------------------------------------------+
|        File Writing Summary       |              Filename             |
+-----------------------------------------------------------------------+
|SU2 binary restart                 |restart.dat                        |
|Paraview                           |vol_solution.vtu                   |
|Paraview surface                   |surface.vtu                        |
+-----------------------------------------------------------------------+
+--------------------------------------------------------------------------------------------------------------------+
|  Inner_Iter|    rms[Rho]|   rms[RhoU]|   rms[RhoV]|   rms[RhoE]|          CD|          CL|         CMz|   LinSolRes|
+--------------------------------------------------------------------------------------------------------------------+
|        2225|  -10.161458|   -9.265538|  -10.240991|   -9.881709|    0.008090|   -0.162173|    0.036485|   -0.742777|
|        2250|  -10.159838|   -9.271020|  -10.240293|   -9.884537|    0.008091|   -0.162171|    0.036486|   -0.726003|
|        2275|  -10.153721|   -9.277003|  -10.228206|   -9.865010|    0.008091|   -0.162168|    0.036486|   -0.696668|
|        2300|  -10.163252|   -9.283451|  -10.233788|   -9.891962|    0.008092|   -0.162165|    0.036486|   -0.713102|
+-----------------------------------------------------------------------+
|        File Writing Summary       |              Filename             |
+-----------------------------------------------------------------------+
|SU2 binary restart                 |restart.dat                        |
|Paraview                           |vol_solution.vtu                   |
|Paraview surface                   |surface.vtu                        |
+-----------------------------------------------------------------------+
+--------------------------------------------------------------------------------------------------------------------+
|  Inner_Iter|    rms[Rho]|   rms[RhoU]|   rms[RhoV]|   rms[RhoE]|          CD|          CL|         CMz|   LinSolRes|
+--------------------------------------------------------------------------------------------------------------------+
|        2325|  -10.162862|   -9.290779|  -10.234110|   -9.895131|    0.008092|   -0.162161|    0.036487|   -0.701574|
|        2350|  -10.184236|   -9.296427|  -10.248167|   -9.930185|    0.008093|   -0.162159|    0.036488|   -0.710451|
|        2375|  -10.176703|   -9.302010|  -10.248015|   -9.921070|    0.008093|   -0.162155|    0.036488|   -0.745500|
|        2400|  -10.185282|   -9.307685|  -10.237386|   -9.931825|    0.008094|   -0.162151|    0.036489|   -0.730348|
+-----------------------------------------------------------------------+
|        File Writing Summary       |              Filename             |
+-----------------------------------------------------------------------+
|SU2 binary restart                 |restart.dat                        |
|Paraview                           |vol_solution.vtu                   |
|Paraview surface                   |surface.vtu                        |
+-----------------------------------------------------------------------+
+--------------------------------------------------------------------------------------------------------------------+
|  Inner_Iter|    rms[Rho]|   rms[RhoU]|   rms[RhoV]|   rms[RhoE]|          CD|          CL|         CMz|   LinSolRes|
+--------------------------------------------------------------------------------------------------------------------+
|        2425|  -10.186052|   -9.313424|  -10.239166|   -9.943722|    0.008094|   -0.162147|    0.036490|   -0.848967|
|        2450|  -10.205337|   -9.319947|  -10.261881|   -9.979855|    0.008095|   -0.162142|    0.036491|   -0.727722|
|        2475|  -10.214985|   -9.326126|  -10.251483|   -9.999003|    0.008095|   -0.162138|    0.036492|   -0.845028|
|        2500|  -10.213789|   -9.332099|  -10.266835|  -10.000755|    0.008096|   -0.162133|    0.036493|   -0.943324|
+-----------------------------------------------------------------------+
|        File Writing Summary       |              Filename             |
+-----------------------------------------------------------------------+
|SU2 binary restart                 |restart.dat                        |
|Paraview                           |vol_solution.vtu                   |
|Paraview surface                   |surface.vtu                        |
+-----------------------------------------------------------------------+
+--------------------------------------------------------------------------------------------------------------------+
|  Inner_Iter|    rms[Rho]|   rms[RhoU]|   rms[RhoV]|   rms[RhoE]|          CD|          CL|         CMz|   LinSolRes|
+--------------------------------------------------------------------------------------------------------------------+
|        2525|  -10.230541|   -9.337918|  -10.259488|  -10.043622|    0.008096|   -0.162128|    0.036494|   -0.720629|
|        2550|  -10.201319|   -9.343373|  -10.237452|   -9.974993|    0.008097|   -0.162123|    0.036495|   -0.802395|
|        2575|  -10.211873|   -9.349814|  -10.251092|   -9.996359|    0.008097|   -0.162118|    0.036497|   -0.926917|
|        2600|  -10.220329|   -9.355792|  -10.251151|  -10.016677|    0.008097|   -0.162112|    0.036498|   -0.838185|
+-----------------------------------------------------------------------+
|        File Writing Summary       |              Filename             |
+-----------------------------------------------------------------------+
|SU2 binary restart                 |restart.dat                        |
|Paraview                           |vol_solution.vtu                   |
|Paraview surface                   |surface.vtu                        |
+-----------------------------------------------------------------------+
+--------------------------------------------------------------------------------------------------------------------+
|  Inner_Iter|    rms[Rho]|   rms[RhoU]|   rms[RhoV]|   rms[RhoE]|          CD|          CL|         CMz|   LinSolRes|
+--------------------------------------------------------------------------------------------------------------------+
|        2625|  -10.226471|   -9.361624|  -10.239498|  -10.037153|    0.008098|   -0.162107|    0.036499|   -0.790742|
|        2650|  -10.222198|   -9.367674|  -10.241540|  -10.020817|    0.008098|   -0.162101|    0.036501|   -0.826793|
|        2675|  -10.229190|   -9.373448|  -10.230636|  -10.043265|    0.008099|   -0.162095|    0.036502|   -0.772942|
|        2700|  -10.223933|   -9.379474|  -10.235086|  -10.025152|    0.008099|   -0.162089|    0.036504|   -0.808574|
+-----------------------------------------------------------------------+
|        File Writing Summary       |              Filename             |
+-----------------------------------------------------------------------+
|SU2 binary restart                 |restart.dat                        |
|Paraview                           |vol_solution.vtu                   |
|Paraview surface                   |surface.vtu                        |
+-----------------------------------------------------------------------+
+--------------------------------------------------------------------------------------------------------------------+
|  Inner_Iter|    rms[Rho]|   rms[RhoU]|   rms[RhoV]|   rms[RhoE]|          CD|          CL|         CMz|   LinSolRes|
+--------------------------------------------------------------------------------------------------------------------+
|        2725|  -10.232122|   -9.385349|  -10.226828|  -10.050032|    0.008099|   -0.162083|    0.036506|   -0.757184|
|        2750|  -10.226680|   -9.391485|  -10.232503|  -10.031096|    0.008100|   -0.162076|    0.036507|   -0.794140|
|        2775|  -10.235030|   -9.397386|  -10.224956|  -10.056595|    0.008100|   -0.162070|    0.036509|   -0.743166|
|        2800|  -10.229292|   -9.403502|  -10.229619|  -10.036619|    0.008100|   -0.162064|    0.036511|   -0.782511|
+-----------------------------------------------------------------------+
|        File Writing Summary       |              Filename             |
+-----------------------------------------------------------------------+
|SU2 binary restart                 |restart.dat                        |
|Paraview                           |vol_solution.vtu                   |
|Paraview surface                   |surface.vtu                        |
+-----------------------------------------------------------------------+
+--------------------------------------------------------------------------------------------------------------------+
|  Inner_Iter|    rms[Rho]|   rms[RhoU]|   rms[RhoV]|   rms[RhoE]|          CD|          CL|         CMz|   LinSolRes|
+--------------------------------------------------------------------------------------------------------------------+
|        2825|  -10.237676|   -9.409373|  -10.221220|  -10.062240|    0.008101|   -0.162057|    0.036513|   -0.729952|
|        2850|  -10.231989|   -9.415517|  -10.225870|  -10.042290|    0.008101|   -0.162051|    0.036514|   -0.768073|
|        2875|  -10.240818|   -9.421371|  -10.217462|  -10.069562|    0.008101|   -0.162044|    0.036516|   -0.717089|
|        2900|  -10.234545|   -9.427511|  -10.221441|  -10.047427|    0.008102|   -0.162037|    0.036518|   -0.756220|
+-----------------------------------------------------------------------+
|        File Writing Summary       |              Filename             |
+-----------------------------------------------------------------------+
|SU2 binary restart                 |restart.dat                        |
|Paraview                           |vol_solution.vtu                   |
|Paraview surface                   |surface.vtu                        |
+-----------------------------------------------------------------------+
+--------------------------------------------------------------------------------------------------------------------+
|  Inner_Iter|    rms[Rho]|   rms[RhoU]|   rms[RhoV]|   rms[RhoE]|          CD|          CL|         CMz|   LinSolRes|
+--------------------------------------------------------------------------------------------------------------------+
|        2925|  -10.243342|   -9.433341|  -10.213504|  -10.075173|    0.008102|   -0.162030|    0.036520|   -0.705213|
|        2950|  -10.237479|   -9.439497|  -10.218268|  -10.053486|    0.008102|   -0.162023|    0.036522|   -0.745265|
|        2975|  -10.246480|   -9.445348|  -10.211255|  -10.082134|    0.008103|   -0.162017|    0.036524|   -0.693666|
|        3000|  -10.240606|   -9.451545|  -10.216708|  -10.060038|    0.008103|   -0.162010|    0.036526|   -0.733374|
+-----------------------------------------------------------------------+
|        File Writing Summary       |              Filename             |
+-----------------------------------------------------------------------+
|SU2 binary restart                 |restart.dat                        |
|Paraview                           |vol_solution.vtu                   |
|Paraview surface                   |surface.vtu                        |
+-----------------------------------------------------------------------+
+--------------------------------------------------------------------------------------------------------------------+
|  Inner_Iter|    rms[Rho]|   rms[RhoU]|   rms[RhoV]|   rms[RhoE]|          CD|          CL|         CMz|   LinSolRes|
+--------------------------------------------------------------------------------------------------------------------+
|        3025|  -10.249784|   -9.457385|  -10.210896|  -10.089220|    0.008103|   -0.162003|    0.036528|   -0.683604|
|        3050|  -10.243869|   -9.463624|  -10.217053|  -10.066710|    0.008103|   -0.161996|    0.036530|   -0.725531|
|        3075|  -10.253375|   -9.469488|  -10.211828|  -10.096932|    0.008104|   -0.161989|    0.036532|   -0.674562|
|        3100|  -10.247504|   -9.475766|  -10.218542|  -10.074110|    0.008104|   -0.161982|    0.036534|   -0.715699|
+-----------------------------------------------------------------------+
|        File Writing Summary       |              Filename             |
+-----------------------------------------------------------------------+
|SU2 binary restart                 |restart.dat                        |
|Paraview                           |vol_solution.vtu                   |
|Paraview surface                   |surface.vtu                        |
+-----------------------------------------------------------------------+
+--------------------------------------------------------------------------------------------------------------------+
|  Inner_Iter|    rms[Rho]|   rms[RhoU]|   rms[RhoV]|   rms[RhoE]|          CD|          CL|         CMz|   LinSolRes|
+--------------------------------------------------------------------------------------------------------------------+
|        3125|  -10.256996|   -9.481654|  -10.213779|  -10.104626|    0.008104|   -0.161975|    0.036536|   -0.666694|
|        3150|  -10.251352|   -9.487978|  -10.220432|  -10.082034|    0.008104|   -0.161968|    0.036538|   -0.708564|
|        3175|  -10.261035|   -9.493873|  -10.215911|  -10.113344|    0.008105|   -0.161961|    0.036540|   -0.658588|
|        3200|  -10.255271|   -9.500240|  -10.222764|  -10.090009|    0.008105|   -0.161953|    0.036542|   -0.701548|
+-----------------------------------------------------------------------+
|        File Writing Summary       |              Filename             |
+-----------------------------------------------------------------------+
|SU2 binary restart                 |restart.dat                        |
|Paraview                           |vol_solution.vtu                   |
|Paraview surface                   |surface.vtu                        |
+-----------------------------------------------------------------------+
+--------------------------------------------------------------------------------------------------------------------+
|  Inner_Iter|    rms[Rho]|   rms[RhoU]|   rms[RhoV]|   rms[RhoE]|          CD|          CL|         CMz|   LinSolRes|
+--------------------------------------------------------------------------------------------------------------------+
|        3225|  -10.266120|   -9.506582|  -10.226068|  -10.123217|    0.008105|   -0.161947|    0.036544|   -0.704448|
|        3250|  -10.266815|   -9.512856|  -10.227837|  -10.127532|    0.008105|   -0.161939|    0.036546|   -0.700684|
|        3275|  -10.271026|   -9.519034|  -10.227803|  -10.133463|    0.008106|   -0.161932|    0.036548|   -0.697154|
|        3300|  -10.271529|   -9.525313|  -10.230365|  -10.136640|    0.008106|   -0.161925|    0.036551|   -0.693733|
+-----------------------------------------------------------------------+
|        File Writing Summary       |              Filename             |
+-----------------------------------------------------------------------+
|SU2 binary restart                 |restart.dat                        |
|Paraview                           |vol_solution.vtu                   |
|Paraview surface                   |surface.vtu                        |
+-----------------------------------------------------------------------+
+--------------------------------------------------------------------------------------------------------------------+
|  Inner_Iter|    rms[Rho]|   rms[RhoU]|   rms[RhoV]|   rms[RhoE]|          CD|          CL|         CMz|   LinSolRes|
+--------------------------------------------------------------------------------------------------------------------+
|        3325|  -10.273793|   -9.531673|  -10.232063|  -10.141629|    0.008106|   -0.161918|    0.036553|   -0.691774|
|        3350|  -10.276845|   -9.538028|  -10.234260|  -10.146878|    0.008106|   -0.161911|    0.036555|   -0.689258|
|        3375|  -10.278247|   -9.544401|  -10.237044|  -10.151274|    0.008107|   -0.161904|    0.036557|   -0.687617|
|        3400|  -10.280774|   -9.550777|  -10.240302|  -10.155622|    0.008107|   -0.161897|    0.036559|   -0.685085|
+-----------------------------------------------------------------------+
|        File Writing Summary       |              Filename             |
+-----------------------------------------------------------------------+
|SU2 binary restart                 |restart.dat                        |
|Paraview                           |vol_solution.vtu                   |
|Paraview surface                   |surface.vtu                        |
+-----------------------------------------------------------------------+
+--------------------------------------------------------------------------------------------------------------------+
|  Inner_Iter|    rms[Rho]|   rms[RhoU]|   rms[RhoV]|   rms[RhoE]|          CD|          CL|         CMz|   LinSolRes|
+--------------------------------------------------------------------------------------------------------------------+
|        3425|  -10.283321|   -9.557048|  -10.244341|  -10.161763|    0.008107|   -0.161890|    0.036561|   -0.682694|
|        3450|  -10.285914|   -9.563296|  -10.248250|  -10.167489|    0.008107|   -0.161883|    0.036563|   -0.679836|
|        3475|  -10.288494|   -9.569707|  -10.252167|  -10.173301|    0.008107|   -0.161876|    0.036565|   -0.677259|
|        3500|  -10.290736|   -9.576230|  -10.255949|  -10.178015|    0.008108|   -0.161869|    0.036567|   -0.675508|
+-----------------------------------------------------------------------+
|        File Writing Summary       |              Filename             |
+-----------------------------------------------------------------------+
|SU2 binary restart                 |restart.dat                        |
|Paraview                           |vol_solution.vtu                   |
|Paraview surface                   |surface.vtu                        |
+-----------------------------------------------------------------------+
+--------------------------------------------------------------------------------------------------------------------+
|  Inner_Iter|    rms[Rho]|   rms[RhoU]|   rms[RhoV]|   rms[RhoE]|          CD|          CL|         CMz|   LinSolRes|
+--------------------------------------------------------------------------------------------------------------------+
|        3525|  -10.293134|   -9.582644|  -10.258996|  -10.183288|    0.008108|   -0.161863|    0.036569|   -0.674184|
|        3550|  -10.295508|   -9.589043|  -10.262031|  -10.187964|    0.008108|   -0.161856|    0.036571|   -0.673034|
|        3575|  -10.297683|   -9.595503|  -10.265445|  -10.192885|    0.008108|   -0.161849|    0.036573|   -0.670776|
|        3600|  -10.300296|   -9.601950|  -10.268638|  -10.198823|    0.008108|   -0.161842|    0.036575|   -0.668105|
+-----------------------------------------------------------------------+
|        File Writing Summary       |              Filename             |
+-----------------------------------------------------------------------+
|SU2 binary restart                 |restart.dat                        |
|Paraview                           |vol_solution.vtu                   |
|Paraview surface                   |surface.vtu                        |
+-----------------------------------------------------------------------+
+--------------------------------------------------------------------------------------------------------------------+
|  Inner_Iter|    rms[Rho]|   rms[RhoU]|   rms[RhoV]|   rms[RhoE]|          CD|          CL|         CMz|   LinSolRes|
+--------------------------------------------------------------------------------------------------------------------+
|        3625|  -10.302929|   -9.608345|  -10.272251|  -10.204489|    0.008109|   -0.161836|    0.036577|   -0.665467|
|        3650|  -10.305256|   -9.614773|  -10.276207|  -10.209998|    0.008109|   -0.161829|    0.036579|   -0.663806|
|        3675|  -10.307616|   -9.621243|  -10.280189|  -10.214694|    0.008109|   -0.161823|    0.036581|   -0.663256|
|        3700|  -10.310078|   -9.627710|  -10.284326|  -10.220013|    0.008109|   -0.161817|    0.036583|   -0.662090|
+-----------------------------------------------------------------------+
|        File Writing Summary       |              Filename             |
+-----------------------------------------------------------------------+
|SU2 binary restart                 |restart.dat                        |
|Paraview                           |vol_solution.vtu                   |
|Paraview surface                   |surface.vtu                        |
+-----------------------------------------------------------------------+
+--------------------------------------------------------------------------------------------------------------------+
|  Inner_Iter|    rms[Rho]|   rms[RhoU]|   rms[RhoV]|   rms[RhoE]|          CD|          CL|         CMz|   LinSolRes|
+--------------------------------------------------------------------------------------------------------------------+
|        3725|  -10.312631|   -9.634186|  -10.288442|  -10.225950|    0.008109|   -0.161810|    0.036585|   -0.660173|
|        3750|  -10.315267|   -9.640681|  -10.292804|  -10.231942|    0.008110|   -0.161804|    0.036587|   -0.657674|
|        3775|  -10.317858|   -9.647185|  -10.297302|  -10.237977|    0.008110|   -0.161798|    0.036589|   -0.656137|
|        3800|  -10.320249|   -9.653692|  -10.301563|  -10.242995|    0.008110|   -0.161791|    0.036591|   -0.655953|
+-----------------------------------------------------------------------+
|        File Writing Summary       |              Filename             |
+-----------------------------------------------------------------------+
|SU2 binary restart                 |restart.dat                        |
|Paraview                           |vol_solution.vtu                   |
|Paraview surface                   |surface.vtu                        |
+-----------------------------------------------------------------------+
+--------------------------------------------------------------------------------------------------------------------+
|  Inner_Iter|    rms[Rho]|   rms[RhoU]|   rms[RhoV]|   rms[RhoE]|          CD|          CL|         CMz|   LinSolRes|
+--------------------------------------------------------------------------------------------------------------------+
|        3825|  -10.322697|   -9.660219|  -10.305860|  -10.248227|    0.008110|   -0.161785|    0.036592|   -0.655149|
|        3850|  -10.325269|   -9.666754|  -10.310301|  -10.254294|    0.008110|   -0.161779|    0.036594|   -0.653367|
|        3875|  -10.327991|   -9.673265|  -10.314877|  -10.260644|    0.008110|   -0.161773|    0.036596|   -0.651157|
|        3900|  -10.330583|   -9.679768|  -10.319681|  -10.266578|    0.008110|   -0.161767|    0.036598|   -0.650142|
+-----------------------------------------------------------------------+
|        File Writing Summary       |              Filename             |
+-----------------------------------------------------------------------+
|SU2 binary restart                 |restart.dat                        |
|Paraview                           |vol_solution.vtu                   |
|Paraview surface                   |surface.vtu                        |
+-----------------------------------------------------------------------+
+--------------------------------------------------------------------------------------------------------------------+
|  Inner_Iter|    rms[Rho]|   rms[RhoU]|   rms[RhoV]|   rms[RhoE]|          CD|          CL|         CMz|   LinSolRes|
+--------------------------------------------------------------------------------------------------------------------+
|        3925|  -10.332934|   -9.686290|  -10.324435|  -10.271547|    0.008111|   -0.161761|    0.036600|   -0.650320|
|        3950|  -10.335491|   -9.692811|  -10.329188|  -10.277216|    0.008111|   -0.161756|    0.036601|   -0.649291|
|        3975|  -10.338207|   -9.699317|  -10.334099|  -10.283794|    0.008111|   -0.161750|    0.036603|   -0.647207|
|        4000|  -10.340810|   -9.705837|  -10.339047|  -10.289900|    0.008111|   -0.161744|    0.036605|   -0.645758|
+-----------------------------------------------------------------------+
|        File Writing Summary       |              Filename             |
+-----------------------------------------------------------------------+
|SU2 binary restart                 |restart.dat                        |
|Paraview                           |vol_solution.vtu                   |
|Paraview surface                   |surface.vtu                        |
+-----------------------------------------------------------------------+
+--------------------------------------------------------------------------------------------------------------------+
|  Inner_Iter|    rms[Rho]|   rms[RhoU]|   rms[RhoV]|   rms[RhoE]|          CD|          CL|         CMz|   LinSolRes|
+--------------------------------------------------------------------------------------------------------------------+
|        4025|  -10.343301|   -9.712397|  -10.343923|  -10.295387|    0.008111|   -0.161739|    0.036607|   -0.645702|
|        4050|  -10.345750|   -9.718970|  -10.348632|  -10.300764|    0.008111|   -0.161733|    0.036608|   -0.645691|
|        4075|  -10.348410|   -9.725528|  -10.353404|  -10.307138|    0.008112|   -0.161728|    0.036610|   -0.643815|
|        4100|  -10.351111|   -9.732073|  -10.358470|  -10.313790|    0.008112|   -0.161722|    0.036612|   -0.641990|
+-----------------------------------------------------------------------+
|        File Writing Summary       |              Filename             |
+-----------------------------------------------------------------------+
|SU2 binary restart                 |restart.dat                        |
|Paraview                           |vol_solution.vtu                   |
|Paraview surface                   |surface.vtu                        |
+-----------------------------------------------------------------------+
+--------------------------------------------------------------------------------------------------------------------+
|  Inner_Iter|    rms[Rho]|   rms[RhoU]|   rms[RhoV]|   rms[RhoE]|          CD|          CL|         CMz|   LinSolRes|
+--------------------------------------------------------------------------------------------------------------------+
|        4125|  -10.353559|   -9.738620|  -10.363580|  -10.319185|    0.008112|   -0.161717|    0.036613|   -0.642008|
|        4150|  -10.356037|   -9.745165|  -10.368653|  -10.324616|    0.008112|   -0.161711|    0.036615|   -0.642127|
|        4175|  -10.358684|   -9.751705|  -10.373862|  -10.331036|    0.008112|   -0.161706|    0.036616|   -0.640778|
|        4200|  -10.361370|   -9.758258|  -10.379221|  -10.337708|    0.008112|   -0.161701|    0.036618|   -0.639032|
+-----------------------------------------------------------------------+
|        File Writing Summary       |              Filename             |
+-----------------------------------------------------------------------+
|SU2 binary restart                 |restart.dat                        |
|Paraview                           |vol_solution.vtu                   |
|Paraview surface                   |surface.vtu                        |
+-----------------------------------------------------------------------+
+--------------------------------------------------------------------------------------------------------------------+
|  Inner_Iter|    rms[Rho]|   rms[RhoU]|   rms[RhoV]|   rms[RhoE]|          CD|          CL|         CMz|   LinSolRes|
+--------------------------------------------------------------------------------------------------------------------+
|        4225|  -10.363918|   -9.764837|  -10.384544|  -10.343602|    0.008112|   -0.161696|    0.036620|   -0.638964|
|        4250|  -10.366341|   -9.771419|  -10.389649|  -10.348899|    0.008112|   -0.161691|    0.036621|   -0.639460|
|        4275|  -10.368957|   -9.777979|  -10.394774|  -10.355292|    0.008113|   -0.161686|    0.036623|   -0.637925|
|        4300|  -10.371645|   -9.784522|  -10.400111|  -10.362126|    0.008113|   -0.161681|    0.036624|   -0.636234|
+-----------------------------------------------------------------------+
|        File Writing Summary       |              Filename             |
+-----------------------------------------------------------------------+
|SU2 binary restart                 |restart.dat                        |
|Paraview                           |vol_solution.vtu                   |
|Paraview surface                   |surface.vtu                        |
+-----------------------------------------------------------------------+
+--------------------------------------------------------------------------------------------------------------------+
|  Inner_Iter|    rms[Rho]|   rms[RhoU]|   rms[RhoV]|   rms[RhoE]|          CD|          CL|         CMz|   LinSolRes|
+--------------------------------------------------------------------------------------------------------------------+
|        4325|  -10.374088|   -9.791076|  -10.405401|  -10.367580|    0.008113|   -0.161676|    0.036626|   -0.636525|
|        4350|  -10.376537|   -9.797642|  -10.410567|  -10.373060|    0.008113|   -0.161671|    0.036627|   -0.636769|
|        4375|  -10.379167|   -9.804195|  -10.415846|  -10.379675|    0.008113|   -0.161666|    0.036628|   -0.635262|
|        4400|  -10.381790|   -9.810743|  -10.421307|  -10.386261|    0.008113|   -0.161662|    0.036630|   -0.633929|
+-----------------------------------------------------------------------+
|        File Writing Summary       |              Filename             |
+-----------------------------------------------------------------------+
|SU2 binary restart                 |restart.dat                        |
|Paraview                           |vol_solution.vtu                   |
|Paraview surface                   |surface.vtu                        |
+-----------------------------------------------------------------------+
+--------------------------------------------------------------------------------------------------------------------+
|  Inner_Iter|    rms[Rho]|   rms[RhoU]|   rms[RhoV]|   rms[RhoE]|          CD|          CL|         CMz|   LinSolRes|
+--------------------------------------------------------------------------------------------------------------------+
|        4425|  -10.384256|   -9.817307|  -10.426738|  -10.391895|    0.008113|   -0.161657|    0.036631|   -0.634451|
|        4450|  -10.386708|   -9.823873|  -10.432045|  -10.397502|    0.008113|   -0.161653|    0.036633|   -0.634630|
|        4475|  -10.389353|   -9.830424|  -10.437478|  -10.404330|    0.008113|   -0.161648|    0.036634|   -0.632807|
|        4500|  -10.391954|   -9.836974|  -10.443069|  -10.410916|    0.008114|   -0.161644|    0.036635|   -0.631966|
+-----------------------------------------------------------------------+
|        File Writing Summary       |              Filename             |
+-----------------------------------------------------------------------+
|SU2 binary restart                 |restart.dat                        |
|Paraview                           |vol_solution.vtu                   |
|Paraview surface                   |surface.vtu                        |
+-----------------------------------------------------------------------+
+--------------------------------------------------------------------------------------------------------------------+
|  Inner_Iter|    rms[Rho]|   rms[RhoU]|   rms[RhoV]|   rms[RhoE]|          CD|          CL|         CMz|   LinSolRes|
+--------------------------------------------------------------------------------------------------------------------+
|        4525|  -10.394336|   -9.843541|  -10.448491|  -10.416114|    0.008114|   -0.161639|    0.036637|   -0.632925|
|        4550|  -10.396850|   -9.850112|  -10.453837|  -10.422179|    0.008114|   -0.161635|    0.036638|   -0.632377|
|        4575|  -10.399498|   -9.856670|  -10.459371|  -10.429224|    0.008114|   -0.161630|    0.036639|   -0.630585|
|        4600|  -10.401967|   -9.863225|  -10.464934|  -10.435067|    0.008114|   -0.161626|    0.036641|   -0.630603|
+-----------------------------------------------------------------------+
|        File Writing Summary       |              Filename             |
+-----------------------------------------------------------------------+
|SU2 binary restart                 |restart.dat                        |
|Paraview                           |vol_solution.vtu                   |
|Paraview surface                   |surface.vtu                        |
+-----------------------------------------------------------------------+
+--------------------------------------------------------------------------------------------------------------------+
|  Inner_Iter|    rms[Rho]|   rms[RhoU]|   rms[RhoV]|   rms[RhoE]|          CD|          CL|         CMz|   LinSolRes|
+--------------------------------------------------------------------------------------------------------------------+
|        4625|  -10.404372|   -9.869784|  -10.470366|  -10.440465|    0.008114|   -0.161622|    0.036642|   -0.631354|
|        4650|  -10.406934|   -9.876331|  -10.475849|  -10.447019|    0.008114|   -0.161618|    0.036643|   -0.630201|
|        4675|  -10.409517|   -9.882868|  -10.481504|  -10.453777|    0.008114|   -0.161614|    0.036644|   -0.628858|
|        4700|  -10.411939|   -9.889423|  -10.487085|  -10.459388|    0.008114|   -0.161610|    0.036646|   -0.629559|
+-----------------------------------------------------------------------+
|        File Writing Summary       |              Filename             |
+-----------------------------------------------------------------------+
|SU2 binary restart                 |restart.dat                        |
|Paraview                           |vol_solution.vtu                   |
|Paraview surface                   |surface.vtu                        |
+-----------------------------------------------------------------------+
+--------------------------------------------------------------------------------------------------------------------+
|  Inner_Iter|    rms[Rho]|   rms[RhoU]|   rms[RhoV]|   rms[RhoE]|          CD|          CL|         CMz|   LinSolRes|
+--------------------------------------------------------------------------------------------------------------------+
|        4725|  -10.414360|   -9.895981|  -10.492490|  -10.465033|    0.008114|   -0.161606|    0.036647|   -0.629825|
|        4750|  -10.416948|   -9.902522|  -10.498018|  -10.471966|    0.008114|   -0.161602|    0.036648|   -0.628058|
|        4775|  -10.419461|   -9.909065|  -10.503662|  -10.478372|    0.008115|   -0.161598|    0.036649|   -0.627634|
|        4800|  -10.421809|   -9.915625|  -10.509111|  -10.483522|    0.008115|   -0.161594|    0.036650|   -0.628732|
+-----------------------------------------------------------------------+
|        File Writing Summary       |              Filename             |
+-----------------------------------------------------------------------+
|SU2 binary restart                 |restart.dat                        |
|Paraview                           |vol_solution.vtu                   |
|Paraview surface                   |surface.vtu                        |
+-----------------------------------------------------------------------+
+--------------------------------------------------------------------------------------------------------------------+
|  Inner_Iter|    rms[Rho]|   rms[RhoU]|   rms[RhoV]|   rms[RhoE]|          CD|          CL|         CMz|   LinSolRes|
+--------------------------------------------------------------------------------------------------------------------+
|        4825|  -10.424309|   -9.922174|  -10.514557|  -10.489893|    0.008115|   -0.161590|    0.036651|   -0.627822|
|        4850|  -10.426884|   -9.928700|  -10.520245|  -10.496908|    0.008115|   -0.161587|    0.036653|   -0.626331|
|        4875|  -10.429264|   -9.935236|  -10.525894|  -10.502357|    0.008115|   -0.161583|    0.036654|   -0.627087|
|        4900|  -10.431665|   -9.941781|  -10.531401|  -10.508004|    0.008115|   -0.161579|    0.036655|   -0.627472|
+-----------------------------------------------------------------------+
|        File Writing Summary       |              Filename             |
+-----------------------------------------------------------------------+
|SU2 binary restart                 |restart.dat                        |
|Paraview                           |vol_solution.vtu                   |
|Paraview surface                   |surface.vtu                        |
+-----------------------------------------------------------------------+
+--------------------------------------------------------------------------------------------------------------------+
|  Inner_Iter|    rms[Rho]|   rms[RhoU]|   rms[RhoV]|   rms[RhoE]|          CD|          CL|         CMz|   LinSolRes|
+--------------------------------------------------------------------------------------------------------------------+
|        4925|  -10.434216|   -9.948304|  -10.537038|  -10.514964|    0.008115|   -0.161576|    0.036656|   -0.625827|
|        4950|  -10.436679|   -9.954838|  -10.542761|  -10.521195|    0.008115|   -0.161572|    0.036657|   -0.625496|
|        4975|  -10.439038|   -9.961399|  -10.548297|  -10.526538|    0.008115|   -0.161569|    0.036658|   -0.626629|
|        5000|  -10.441511|   -9.967951|  -10.553805|  -10.532936|    0.008115|   -0.161565|    0.036659|   -0.625865|
+-----------------------------------------------------------------------+
|        File Writing Summary       |              Filename             |
+-----------------------------------------------------------------------+
|SU2 binary restart                 |restart.dat                        |
|Paraview                           |vol_solution.vtu                   |
|Paraview surface                   |surface.vtu                        |
+-----------------------------------------------------------------------+
+--------------------------------------------------------------------------------------------------------------------+
|  Inner_Iter|    rms[Rho]|   rms[RhoU]|   rms[RhoV]|   rms[RhoE]|          CD|          CL|         CMz|   LinSolRes|
+--------------------------------------------------------------------------------------------------------------------+
|        5025|  -10.444037|   -9.974492|  -10.559521|  -10.539843|    0.008115|   -0.161562|    0.036660|   -0.624525|
|        5050|  -10.446420|   -9.981047|  -10.565224|  -10.545477|    0.008115|   -0.161558|    0.036661|   -0.625423|
|        5075|  -10.448808|   -9.987591|  -10.570822|  -10.551158|    0.008115|   -0.161555|    0.036662|   -0.625855|
|        5100|  -10.451344|   -9.994110|  -10.576645|  -10.558253|    0.008115|   -0.161552|    0.036663|   -0.624260|
+-----------------------------------------------------------------------+
|        File Writing Summary       |              Filename             |
+-----------------------------------------------------------------------+
|SU2 binary restart                 |restart.dat                        |
|Paraview                           |vol_solution.vtu                   |
|Paraview surface                   |surface.vtu                        |
+-----------------------------------------------------------------------+
+--------------------------------------------------------------------------------------------------------------------+
|  Inner_Iter|    rms[Rho]|   rms[RhoU]|   rms[RhoV]|   rms[RhoE]|          CD|          CL|         CMz|   LinSolRes|
+--------------------------------------------------------------------------------------------------------------------+
|        5125|  -10.453799|  -10.000646|  -10.582605|  -10.564608|    0.008116|   -0.161549|    0.036664|   -0.624316|
|        5150|  -10.456143|  -10.007209|  -10.588354|  -10.569885|    0.008116|   -0.161545|    0.036665|   -0.625580|
|        5175|  -10.458633|  -10.013762|  -10.594123|  -10.576647|    0.008116|   -0.161542|    0.036666|   -0.624535|
|        5200|  -10.461131|  -10.020304|  -10.600067|  -10.583577|    0.008116|   -0.161539|    0.036667|   -0.623605|
+-----------------------------------------------------------------------+
|        File Writing Summary       |              Filename             |
+-----------------------------------------------------------------------+
|SU2 binary restart                 |restart.dat                        |
|Paraview                           |vol_solution.vtu                   |
|Paraview surface                   |surface.vtu                        |
+-----------------------------------------------------------------------+
+--------------------------------------------------------------------------------------------------------------------+
|  Inner_Iter|    rms[Rho]|   rms[RhoU]|   rms[RhoV]|   rms[RhoE]|          CD|          CL|         CMz|   LinSolRes|
+--------------------------------------------------------------------------------------------------------------------+
|        5225|  -10.463464|  -10.026869|  -10.605835|  -10.588823|    0.008116|   -0.161536|    0.036668|   -0.624905|
|        5250|  -10.465883|  -10.033438|  -10.611489|  -10.594963|    0.008116|   -0.161533|    0.036669|   -0.624842|
|        5275|  -10.468396|  -10.039989|  -10.617359|  -10.602180|    0.008116|   -0.161530|    0.036670|   -0.623391|
|        5300|  -10.470770|  -10.046557|  -10.623233|  -10.607909|    0.008116|   -0.161527|    0.036670|   -0.624159|
+-----------------------------------------------------------------------+
|        File Writing Summary       |              Filename             |
+-----------------------------------------------------------------------+
|SU2 binary restart                 |restart.dat                        |
|Paraview                           |vol_solution.vtu                   |
|Paraview surface                   |surface.vtu                        |
+-----------------------------------------------------------------------+
+--------------------------------------------------------------------------------------------------------------------+
|  Inner_Iter|    rms[Rho]|   rms[RhoU]|   rms[RhoV]|   rms[RhoE]|          CD|          CL|         CMz|   LinSolRes|
+--------------------------------------------------------------------------------------------------------------------+
|        5325|  -10.473133|  -10.053144|  -10.628951|  -10.613536|    0.008116|   -0.161524|    0.036671|   -0.625035|
|        5350|  -10.475621|  -10.059699|  -10.634835|  -10.620615|    0.008116|   -0.161522|    0.036672|   -0.623645|
|        5375|  -10.478047|  -10.066242|  -10.640887|  -10.626995|    0.008116|   -0.161519|    0.036673|   -0.623579|
|        5400|  -10.480390|  -10.072820|  -10.646786|  -10.632436|    0.008116|   -0.161516|    0.036674|   -0.625036|
+-----------------------------------------------------------------------+
|        File Writing Summary       |              Filename             |
+-----------------------------------------------------------------------+
|SU2 binary restart                 |restart.dat                        |
|Paraview                           |vol_solution.vtu                   |
|Paraview surface                   |surface.vtu                        |
+-----------------------------------------------------------------------+
+--------------------------------------------------------------------------------------------------------------------+
|  Inner_Iter|    rms[Rho]|   rms[RhoU]|   rms[RhoV]|   rms[RhoE]|          CD|          CL|         CMz|   LinSolRes|
+--------------------------------------------------------------------------------------------------------------------+
|        5425|  -10.482836|  -10.079403|  -10.652669|  -10.639133|    0.008116|   -0.161513|    0.036675|   -0.624276|
|        5450|  -10.485299|  -10.085982|  -10.658714|  -10.646069|    0.008116|   -0.161511|    0.036675|   -0.623412|
|        5475|  -10.487643|  -10.092584|  -10.664627|  -10.651597|    0.008116|   -0.161508|    0.036676|   -0.624859|
|        5500|  -10.490033|  -10.099182|  -10.670426|  -10.657723|    0.008116|   -0.161505|    0.036677|   -0.624961|
+-----------------------------------------------------------------------+
|        File Writing Summary       |              Filename             |
+-----------------------------------------------------------------------+
|SU2 binary restart                 |restart.dat                        |
|Paraview                           |vol_solution.vtu                   |
|Paraview surface                   |surface.vtu                        |
+-----------------------------------------------------------------------+
+--------------------------------------------------------------------------------------------------------------------+
|  Inner_Iter|    rms[Rho]|   rms[RhoU]|   rms[RhoV]|   rms[RhoE]|          CD|          CL|         CMz|   LinSolRes|
+--------------------------------------------------------------------------------------------------------------------+
|        5525|  -10.492508|  -10.105759|  -10.676441|  -10.664956|    0.008116|   -0.161503|    0.036678|   -0.623636|
|        5550|  -10.494877|  -10.112354|  -10.682473|  -10.670870|    0.008116|   -0.161500|    0.036679|   -0.624635|
|        5575|  -10.497224|  -10.118961|  -10.688331|  -10.676510|    0.008116|   -0.161498|    0.036679|   -0.625562|
|        5600|  -10.499691|  -10.125544|  -10.694362|  -10.683762|    0.008116|   -0.161495|    0.036680|   -0.624236|
+-----------------------------------------------------------------------+
|        File Writing Summary       |              Filename             |
+-----------------------------------------------------------------------+
|SU2 binary restart                 |restart.dat                        |
|Paraview                           |vol_solution.vtu                   |
|Paraview surface                   |surface.vtu                        |
+-----------------------------------------------------------------------+
+--------------------------------------------------------------------------------------------------------------------+
|  Inner_Iter|    rms[Rho]|   rms[RhoU]|   rms[RhoV]|   rms[RhoE]|          CD|          CL|         CMz|   LinSolRes|
+--------------------------------------------------------------------------------------------------------------------+
|        5625|  -10.502094|  -10.132138|  -10.700518|  -10.690211|    0.008117|   -0.161493|    0.036681|   -0.624578|
|        5650|  -10.504415|  -10.138766|  -10.706452|  -10.695569|    0.008117|   -0.161490|    0.036681|   -0.626073|
|        5675|  -10.506856|  -10.145382|  -10.712441|  -10.702587|    0.008117|   -0.161488|    0.036682|   -0.625147|
|        5700|  -10.509288|  -10.151991|  -10.718643|  -10.709529|    0.008117|   -0.161486|    0.036683|   -0.624805|
+-----------------------------------------------------------------------+
|        File Writing Summary       |              Filename             |
+-----------------------------------------------------------------------+
|SU2 binary restart                 |restart.dat                        |
|Paraview                           |vol_solution.vtu                   |
|Paraview surface                   |surface.vtu                        |
+-----------------------------------------------------------------------+
+--------------------------------------------------------------------------------------------------------------------+
|  Inner_Iter|    rms[Rho]|   rms[RhoU]|   rms[RhoV]|   rms[RhoE]|          CD|          CL|         CMz|   LinSolRes|
+--------------------------------------------------------------------------------------------------------------------+
|        5725|  -10.511604|  -10.158626|  -10.724682|  -10.714847|    0.008117|   -0.161483|    0.036684|   -0.626517|
|        5750|  -10.514007|  -10.165253|  -10.730685|  -10.721458|    0.008117|   -0.161481|    0.036684|   -0.626239|
|        5775|  -10.516451|  -10.171862|  -10.736921|  -10.728719|    0.008117|   -0.161479|    0.036685|   -0.625328|
|        5800|  -10.518776|  -10.178493|  -10.743054|  -10.734218|    0.008117|   -0.161476|    0.036686|   -0.626900|
+-----------------------------------------------------------------------+
|        File Writing Summary       |              Filename             |
+-----------------------------------------------------------------------+
|SU2 binary restart                 |restart.dat                        |
|Paraview                           |vol_solution.vtu                   |
|Paraview surface                   |surface.vtu                        |
+-----------------------------------------------------------------------+
+--------------------------------------------------------------------------------------------------------------------+
|  Inner_Iter|    rms[Rho]|   rms[RhoU]|   rms[RhoV]|   rms[RhoE]|          CD|          CL|         CMz|   LinSolRes|
+--------------------------------------------------------------------------------------------------------------------+
|        5825|  -10.521146|  -10.185133|  -10.749043|  -10.740412|    0.008117|   -0.161474|    0.036686|   -0.627400|
|        5850|  -10.523590|  -10.191770|  -10.755221|  -10.747821|    0.008117|   -0.161472|    0.036687|   -0.626208|
|        5875|  -10.525934|  -10.198438|  -10.761364|  -10.753675|    0.008117|   -0.161470|    0.036687|   -0.627335|
|        5900|  -10.528276|  -10.205109|  -10.767327|  -10.759473|    0.008117|   -0.161468|    0.036688|   -0.628495|
+-----------------------------------------------------------------------+
|        File Writing Summary       |              Filename             |
+-----------------------------------------------------------------------+
|SU2 binary restart                 |restart.dat                        |
|Paraview                           |vol_solution.vtu                   |
|Paraview surface                   |surface.vtu                        |
+-----------------------------------------------------------------------+
+--------------------------------------------------------------------------------------------------------------------+
|  Inner_Iter|    rms[Rho]|   rms[RhoU]|   rms[RhoV]|   rms[RhoE]|          CD|          CL|         CMz|   LinSolRes|
+--------------------------------------------------------------------------------------------------------------------+
|        5925|  -10.530707|  -10.211745|  -10.773490|  -10.766804|    0.008117|   -0.161466|    0.036689|   -0.627326|
|        5950|  -10.533077|  -10.218394|  -10.779778|  -10.773140|    0.008117|   -0.161464|    0.036689|   -0.627917|
|        5975|  -10.535404|  -10.225073|  -10.785884|  -10.778746|    0.008117|   -0.161462|    0.036690|   -0.629608|
|        6000|  -10.537817|  -10.231734|  -10.792080|  -10.785888|    0.008117|   -0.161460|    0.036690|   -0.628769|
+-----------------------------------------------------------------------+
|        File Writing Summary       |              Filename             |
+-----------------------------------------------------------------------+
|SU2 binary restart                 |restart.dat                        |
|Paraview                           |vol_solution.vtu                   |
|Paraview surface                   |surface.vtu                        |
+-----------------------------------------------------------------------+
+--------------------------------------------------------------------------------------------------------------------+
|  Inner_Iter|    rms[Rho]|   rms[RhoU]|   rms[RhoV]|   rms[RhoE]|          CD|          CL|         CMz|   LinSolRes|
+--------------------------------------------------------------------------------------------------------------------+
|        6025|  -10.540209|  -10.238397|  -10.798448|  -10.792695|    0.008117|   -0.161458|    0.036691|   -0.628802|
|        6050|  -10.542530|  -10.245093|  -10.804636|  -10.798240|    0.008117|   -0.161456|    0.036692|   -0.630758|
|        6075|  -10.544919|  -10.251777|  -10.810810|  -10.805054|    0.008117|   -0.161454|    0.036692|   -0.630431|
|        6100|  -10.547326|  -10.258453|  -10.817197|  -10.812238|    0.008117|   -0.161452|    0.036693|   -0.629973|
+-----------------------------------------------------------------------+
|        File Writing Summary       |              Filename             |
+-----------------------------------------------------------------------+
|SU2 binary restart                 |restart.dat                        |
|Paraview                           |vol_solution.vtu                   |
|Paraview surface                   |surface.vtu                        |
+-----------------------------------------------------------------------+
+--------------------------------------------------------------------------------------------------------------------+
|  Inner_Iter|    rms[Rho]|   rms[RhoU]|   rms[RhoV]|   rms[RhoE]|          CD|          CL|         CMz|   LinSolRes|
+--------------------------------------------------------------------------------------------------------------------+
|        6125|  -10.549650|  -10.265158|  -10.823462|  -10.817877|    0.008117|   -0.161450|    0.036693|   -0.631935|
|        6150|  -10.552014|  -10.271862|  -10.829634|  -10.824313|    0.008117|   -0.161449|    0.036694|   -0.632224|
|        6175|  -10.554428|  -10.278549|  -10.836035|  -10.831756|    0.008117|   -0.161447|    0.036694|   -0.631431|
|        6200|  -10.556762|  -10.285264|  -10.842394|  -10.837633|    0.008117|   -0.161445|    0.036695|   -0.633187|
+-----------------------------------------------------------------------+
|        File Writing Summary       |              Filename             |
+-----------------------------------------------------------------------+
|SU2 binary restart                 |restart.dat                        |
|Paraview                           |vol_solution.vtu                   |
|Paraview surface                   |surface.vtu                        |
+-----------------------------------------------------------------------+
+--------------------------------------------------------------------------------------------------------------------+
|  Inner_Iter|    rms[Rho]|   rms[RhoU]|   rms[RhoV]|   rms[RhoE]|          CD|          CL|         CMz|   LinSolRes|
+--------------------------------------------------------------------------------------------------------------------+
|        6203|  -10.557072|  -10.286066|  -10.843074|  -10.838969|    0.008117|   -0.161445|    0.036695|   -0.632183|

----------------------------- Solver Exit -------------------------------
All convergence criteria satisfied.
+-----------------------------------------------------------------------+
|      Convergence Field     |     Value    |   Criterion  |  Converged |
+-----------------------------------------------------------------------+
|                  Cauchy[CL]|   4.99819e-07|       < 5e-07|         Yes|
+-----------------------------------------------------------------------+
-------------------------------------------------------------------------
+-----------------------------------------------------------------------+
|        File Writing Summary       |              Filename             |
+-----------------------------------------------------------------------+
|SU2 binary restart                 |restart.dat                        |
|Paraview                           |vol_solution.vtu                   |
|Paraview surface                   |surface.vtu                        |
+-----------------------------------------------------------------------+

------------------------- Solver Postprocessing -------------------------
Deleted CNumerics container.
Deleted CIntegration container.
Deleted CSolver container.
Deleted CIteration container.
Deleted CInterface container.
Deleted CGeometry container.
Deleted CFreeFormDefBox class.
Deleted CSurfaceMovement class.
Deleted CVolumetricMovement class.
Deleted CConfig container.
Deleted nInst container.
Deleted COutput class.
-------------------------------------------------------------------------

------------------------- Exit Success (SU2_CFD) ------------------------

