WARNING: The current SST-1994m model is inconsistent with literature. We recommend using the SST-2003m model.
In SU2 v8 the 2003m model will become default, and the inconsistency will be fixed.

-------------------------------------------------------------------------
|    ___ _   _ ___                                                      |
|   / __| | | |_  )   Release 7.4.0 "Blackbird"                         |
|   \__ \ |_| |/ /                                                      |
|   |___/\___//___|   Suite (Computational Fluid Dynamics Code)         |
|                                                                       |
-------------------------------------------------------------------------
| SU2 Project Website: https://su2code.github.io                        |
|                                                                       |
| The SU2 Project is maintained by the SU2 Foundation                   |
| (http://su2foundation.org)                                            |
-------------------------------------------------------------------------
| Copyright 2012-2022, SU2 Contributors                                 |
|                                                                       |
| SU2 is free software; you can redistribute it and/or                  |
| modify it under the terms of the GNU Lesser General Public            |
| License as published by the Free Software Foundation; either          |
| version 2.1 of the License, or (at your option) any later version.    |
|                                                                       |
| SU2 is distributed in the hope that it will be useful,                |
| but WITHOUT ANY WARRANTY; without even the implied warranty of        |
| MERCHANTABILITY or FITNESS FOR A PARTICULAR PURPOSE. See the GNU      |
| Lesser General Public License for more details.                       |
|                                                                       |
| You should have received a copy of the GNU Lesser General Public      |
| License along with SU2. If not, see <http://www.gnu.org/licenses/>.   |
-------------------------------------------------------------------------
WARNING: The current SST-1994m model is inconsistent with literature. We recommend using the SST-2003m model.
In SU2 v8 the 2003m model will become default, and the inconsistency will be fixed.

Parsing config file for zone 0
WARNING: The current SST-1994m model is inconsistent with literature. We recommend using the SST-2003m model.
In SU2 v8 the 2003m model will become default, and the inconsistency will be fixed.

----------------- Physical Case Definition ( Zone 0 ) -------------------
Compressible RANS equations.
Turbulence model: Menter's k-omega SST-1994m with no production modification.
Hybrid RANS/LES: No Hybrid RANS/LES
Mach number: 0.25.
Angle of attack (AoA): -5 deg, and angle of sideslip (AoS): 0 deg.
Reynolds number: 1.52602e+07. Reference length 2.62.
No restart solution, use the values at infinity (freestream).
Non-Dimensional simulation (V=Mach, Rho=1.0, T=1.0 at the farfield).
The reference area is 2.62 m^2.
The semi-span will be computed using the max y(3D) value.
The reference length is 2.62 m.
Reference origin for moment evaluation is (0, 0, 0).
Surface(s) where the force coefficients are evaluated: wall.

Surface(s) plotted in the output file: wall.
Input mesh file name: su2meshEx.su2

--------------- Space Numerical Integration ( Zone 0 ) ------------------
Roe (with entropy fix = 1e-05) solver for the flow inviscid terms.
Standard Roe without low-dissipation function.
Second order integration in space, with slope limiter.
Van Albada slope-limiting method implemented by edges.
Scalar upwind solver for the turbulence model.
First order integration in space.
Average of gradients with correction (viscous flow terms).
Average of gradients with correction (viscous turbulence terms).
Gradient for upwind reconstruction: Green-Gauss.
Gradient for viscous and source terms: Green-Gauss.

--------------- Time Numerical Integration  ( Zone 0 ) ------------------
Local time stepping (steady state simulation).
Euler implicit method for the flow equations.
FGMRES is used for solving the linear system.
Using a ILU(0) preconditioning.
Convergence criteria of the linear solver: 0.2.
Max number of linear iterations: 4.
CFL adaptation. Factor down: 0.1, factor up: 1.2,
                lower limit: 25, upper limit: 1000,
                acceptable linear residual: 0.001.
Courant-Friedrichs-Lewy number:       25
Euler implicit time integration for the turbulence model.

------------------ Convergence Criteria  ( Zone 0 ) ---------------------
Maximum number of solver subiterations: 25000.
Begin convergence monitoring at iteration 10.
Residual minimum value: 1e-11.5.
Cauchy series min. value: 5e-07.
Number of Cauchy elements: 500.
Begin windowed time average at iteration 0.

-------------------- Output Information ( Zone 0 ) ----------------------
File writing frequency: 
+------------------------------------+
|                     File| Frequency|
+------------------------------------+
|                  RESTART|       100|
|                 PARAVIEW|       100|
|         SURFACE_PARAVIEW|       100|
+------------------------------------+
Writing the convergence history file every 1 inner iterations.
Writing the screen convergence history every 25 inner iterations.
The tabular file format is CSV (.csv).
Convergence history file name: history.
Forces breakdown file name: forces_breakdown.dat.
Surface file name: surface.
Volume file name: vol_solution.
Restart file name: restart.dat.

------------- Config File Boundary Information ( Zone 0 ) ---------------
+-----------------------------------------------------------------------+
|                        Marker Type|                        Marker Name|
+-----------------------------------------------------------------------+
|                          Far-field|                          far-field|
+-----------------------------------------------------------------------+
|                     Heat flux wall|                               wall|
+-----------------------------------------------------------------------+

-------------------- Output Preprocessing ( Zone 0 ) --------------------

WARNING: SURFACE_PRESSURE_DROP can only be computed for at least 2 surfaces (outlet, inlet, ...)

  Info: Ignoring the following screen output fields:
  RMS_NU_TILDE
Screen output fields: INNER_ITER, RMS_DENSITY, RMS_MOMENTUM-X, RMS_MOMENTUM-Y, RMS_ENERGY, DRAG, LIFT, MOMENT_Z, LINSOL_RESIDUAL
History output group(s): ITER, RMS_RES, AERO_COEFF
Convergence field(s): LIFT
Warning: No (valid) fields chosen for time convergence monitoring. Time convergence monitoring inactive.
Volume output fields: COORDINATES, SOLUTION, PRIMITIVE

------------------- Geometry Preprocessing ( Zone 0 ) -------------------
Two dimensional problem.
66015 grid points before partitioning.
65610 volume elements before partitioning.
2 surface markers.
405 boundary elements in index 0 (Marker = far-field).
405 boundary elements in index 1 (Marker = wall).
Executing the partitioning functions.
Building the graph adjacency structure.
Calling ParMETIS... graph partitioning complete (888 edge cuts).
Distributing ParMETIS coloring.
Rebalancing vertices.
Rebalancing volume element connectivity.
Rebalancing markers and surface elements.
67791 vertices including ghost points. 
66494 interior elements including halo cells. 
66494 quadrilaterals.
Establishing MPI communication patterns.
Setting point connectivity.
Renumbering points (Reverse Cuthill McKee Ordering).
Recomputing point connectivity.
Setting element connectivity.
Checking the numerical grid orientation.
All volume elements are correctly orientend.
All surface elements are correctly orientend.
Identifying edges and vertices.
Setting the control volume structure.
Area of the computational grid: 177681.
Searching for the closest normal neighbors to the surfaces.
Storing a mapping from global to local point index.
Compute the surface curvature.
Max K: 1084.38. Mean K: 3.59037. Standard deviation K: 49.7608.
Checking for periodicity.
Computing mesh quality statistics for the dual control volumes.
+--------------------------------------------------------------+
|           Mesh Quality Metric|        Minimum|        Maximum|
+--------------------------------------------------------------+
|    Orthogonality Angle (deg.)|         82.757|             90|
|     CV Face Area Aspect Ratio|        1.00372|        11629.9|
|           CV Sub-Volume Ratio|              1|        2.23945|
+--------------------------------------------------------------+
Finding max control volume width.
Communicating number of neighbors.
Wetted area = 5.32649 m.
Area projection in the x-plane = 0.29702 m, y-plane = 2.61984 m.
Max. coordinate in the x-direction = 2.62 m, y-direction = 0.165086 m.
Min. coordinate in the x-direction = 0 m, y-direction = -0.119236 m.
Computing wall distances.

-------------------- Solver Preprocessing ( Zone 0 ) --------------------
Viscous flow: Computing pressure using the ideal gas law
based on the free-stream temperature and a density computed
from the Reynolds number.
Force coefficients computed using free-stream values.

-- Models:
+------------------------------------------------------------------------------+
|          Viscosity Model|        Conductivity Model|              Fluid Model|
+------------------------------------------------------------------------------+
|               SUTHERLAND|          CONSTANT_PRANDTL|             STANDARD_AIR|
+------------------------------------------------------------------------------+
-- Fluid properties:
+------------------------------------------------------------------------------+
|                  Name|    Dim. value|    Ref. value|      Unit|Non-dim. value|
+------------------------------------------------------------------------------+
|        Ref. Viscosity|     1.716e-05|       416.883|   N.s/m^2|   4.11626e-08|
|      Sutherland Temp.|        273.15|        288.16|         K|      0.947911|
|     Sutherland Const.|         110.4|        288.16|         K|       0.38312|
+------------------------------------------------------------------------------+
|        Prandtl (Lam.)|             -|             -|         -|          0.72|
|       Prandtl (Turb.)|             -|             -|         -|           0.9|
+------------------------------------------------------------------------------+
|          Gas Constant|       287.058|       401.881|  N.m/kg.K|      0.714286|
|      Spec. Heat Ratio|             -|             -|         -|           1.4|
+------------------------------------------------------------------------------+
-- Initial and free-stream conditions:
+------------------------------------------------------------------------------+
|                  Name|    Dim. value|    Ref. value|      Unit|Non-dim. value|
+------------------------------------------------------------------------------+
|       Static Pressure|        101333|        141867|        Pa|      0.714286|
|               Density|       1.22504|       1.22504|    kg/m^3|             1|
|           Temperature|        288.16|        288.16|         K|             1|
|          Total Energy|        210443|        115806|   m^2/s^2|        1.8172|
|            Velocity-X|        84.752|       340.303|       m/s|      0.249049|
|            Velocity-Y|      -7.41484|       340.303|       m/s|    -0.0217889|
|    Velocity Magnitude|       85.0757|       340.303|       m/s|          0.25|
+------------------------------------------------------------------------------+
|             Viscosity|   1.78935e-05|       416.883|   N.s/m^2|    4.2922e-08|
|          Conductivity|             -|        167537|   W/m^2.K|             -|
|     Turb. Kin. Energy|       27.1421|        115806|   m^2/s^2|   0.000234375|
|     Spec. Dissipation|        185822|       340.303|       1/s|       546.049|
+------------------------------------------------------------------------------+
|           Mach Number|             -|             -|         -|          0.25|
|       Reynolds Number|             -|             -|         -|   1.52602e+07|
+------------------------------------------------------------------------------+
Initialize Jacobian structure (Navier-Stokes). MG level: 0.
Initialize Jacobian structure (SST model).

------------------- Numerics Preprocessing ( Zone 0 ) -------------------

----------------- Integration Preprocessing ( Zone 0 ) ------------------

------------------- Iteration Preprocessing ( Zone 0 ) ------------------
Euler/Navier-Stokes/RANS fluid iteration.

------------------------------ Begin Solver -----------------------------

Simulation Run using the Single-zone Driver
WARNING: SU2 was not compiled for an AVX-capable architecture.
+--------------------------------------------------------------------------------------------------------------------+
|  Inner_Iter|    rms[Rho]|   rms[RhoU]|   rms[RhoV]|   rms[RhoE]|          CD|          CL|         CMz|   LinSolRes|
+--------------------------------------------------------------------------------------------------------------------+
|           0|   -4.350562|  -15.591517|  -15.611060|   -3.947187|    0.565858|   -1.271576|   -0.524453|   -0.745309|
|          25|   -4.988458|   -5.048377|   -4.998514|   -4.596412|   -0.040948|    0.464124|    0.423489|   -0.654634|
|          50|   -5.172892|   -5.227427|   -5.357462|   -4.779221|   -0.021478|    0.086820|    0.244519|   -0.630720|
|          75|   -5.505260|   -5.283555|   -5.493519|   -5.121007|    0.006969|   -0.248099|    0.061701|   -0.698928|
|         100|   -6.152790|   -5.763680|   -5.904488|   -5.765638|    0.031469|   -0.380162|   -0.038552|   -0.686320|
+-----------------------------------------------------------------------+
|        File Writing Summary       |              Filename             |
+-----------------------------------------------------------------------+
|SU2 binary restart                 |restart.dat                        |
|Paraview                           |vol_solution.vtu                   |
|Paraview surface                   |surface.vtu                        |
+-----------------------------------------------------------------------+
+--------------------------------------------------------------------------------------------------------------------+
|  Inner_Iter|    rms[Rho]|   rms[RhoU]|   rms[RhoV]|   rms[RhoE]|          CD|          CL|         CMz|   LinSolRes|
+--------------------------------------------------------------------------------------------------------------------+
|         125|   -5.995713|   -5.825524|   -5.919983|   -5.617559|    0.026889|   -0.302009|   -0.018837|   -0.686995|
|         150|   -6.261534|   -6.008579|   -6.242358|   -5.864773|    0.015388|   -0.227726|    0.020336|   -1.049272|
|         175|   -6.573120|   -6.213730|   -6.389789|   -6.196371|    0.012110|   -0.188545|    0.047429|   -0.603256|
|         200|   -6.698191|   -6.437482|   -6.561925|   -6.317919|    0.011821|   -0.205366|    0.044524|   -0.641995|
+-----------------------------------------------------------------------+
|        File Writing Summary       |              Filename             |
+-----------------------------------------------------------------------+
|SU2 binary restart                 |restart.dat                        |
|Paraview                           |vol_solution.vtu                   |
|Paraview surface                   |surface.vtu                        |
+-----------------------------------------------------------------------+
+--------------------------------------------------------------------------------------------------------------------+
|  Inner_Iter|    rms[Rho]|   rms[RhoU]|   rms[RhoV]|   rms[RhoE]|          CD|          CL|         CMz|   LinSolRes|
+--------------------------------------------------------------------------------------------------------------------+
|         225|   -6.952468|   -6.650279|   -6.798060|   -6.569947|    0.014863|   -0.241679|    0.025240|   -0.859272|
|         250|   -7.076379|   -6.752538|   -6.957623|   -6.694934|    0.013883|   -0.236351|    0.025217|   -0.616672|
|         275|   -7.096499|   -6.794766|   -6.957412|   -6.719010|    0.011682|   -0.223501|    0.034038|   -0.592833|
|         300|   -7.144295|   -6.883245|   -7.046689|   -6.767723|    0.012835|   -0.236329|    0.028189|   -0.705465|
+-----------------------------------------------------------------------+
|        File Writing Summary       |              Filename             |
+-----------------------------------------------------------------------+
|SU2 binary restart                 |restart.dat                        |
|Paraview                           |vol_solution.vtu                   |
|Paraview surface                   |surface.vtu                        |
+-----------------------------------------------------------------------+
+--------------------------------------------------------------------------------------------------------------------+
|  Inner_Iter|    rms[Rho]|   rms[RhoU]|   rms[RhoV]|   rms[RhoE]|          CD|          CL|         CMz|   LinSolRes|
+--------------------------------------------------------------------------------------------------------------------+
|         325|   -7.291538|   -7.050694|   -7.246116|   -6.912948|    0.012327|   -0.236077|    0.027589|   -0.723141|
|         350|   -7.516223|   -7.140015|   -7.405741|   -7.136979|    0.011547|   -0.232274|    0.030455|   -0.658751|
|         375|   -7.734537|   -7.261965|   -7.512051|   -7.355291|    0.012041|   -0.238551|    0.027090|   -0.743436|
|         400|   -7.864803|   -7.282148|   -7.753043|   -7.454590|    0.011278|   -0.234914|    0.029180|   -0.728586|
+-----------------------------------------------------------------------+
|        File Writing Summary       |              Filename             |
+-----------------------------------------------------------------------+
|SU2 binary restart                 |restart.dat                        |
|Paraview                           |vol_solution.vtu                   |
|Paraview surface                   |surface.vtu                        |
+-----------------------------------------------------------------------+
+--------------------------------------------------------------------------------------------------------------------+
|  Inner_Iter|    rms[Rho]|   rms[RhoU]|   rms[RhoV]|   rms[RhoE]|          CD|          CL|         CMz|   LinSolRes|
+--------------------------------------------------------------------------------------------------------------------+
|         425|   -7.836891|   -7.367327|   -7.886349|   -7.436103|    0.011557|   -0.238592|    0.027500|   -0.749329|
|         450|   -7.844934|   -7.366556|   -7.885242|   -7.449888|    0.011136|   -0.237526|    0.028032|   -0.743091|
|         475|   -7.926120|   -7.400268|   -7.859342|   -7.543204|    0.011132|   -0.239050|    0.027524|   -0.773354|
|         500|   -8.019449|   -7.440296|   -7.920779|   -7.641769|    0.010974|   -0.239564|    0.027235|   -0.660646|
+-----------------------------------------------------------------------+
|        File Writing Summary       |              Filename             |
+-----------------------------------------------------------------------+
|SU2 binary restart                 |restart.dat                        |
|Paraview                           |vol_solution.vtu                   |
|Paraview surface                   |surface.vtu                        |
+-----------------------------------------------------------------------+
+--------------------------------------------------------------------------------------------------------------------+
|  Inner_Iter|    rms[Rho]|   rms[RhoU]|   rms[RhoV]|   rms[RhoE]|          CD|          CL|         CMz|   LinSolRes|
+--------------------------------------------------------------------------------------------------------------------+
|         525|   -8.213488|   -7.461282|   -8.067431|   -7.816647|    0.010802|   -0.239866|    0.027311|   -0.594783|
|         550|   -8.283604|   -7.509990|   -8.230152|   -7.898018|    0.010757|   -0.240745|    0.026850|   -0.699916|
|         575|   -8.379352|   -7.514931|   -8.259964|   -7.972418|    0.010576|   -0.240941|    0.026927|   -0.644700|
|         600|   -8.387806|   -7.541739|   -8.284102|   -8.012126|    0.010518|   -0.241768|    0.026529|   -0.713281|
+-----------------------------------------------------------------------+
|        File Writing Summary       |              Filename             |
+-----------------------------------------------------------------------+
|SU2 binary restart                 |restart.dat                        |
|Paraview                           |vol_solution.vtu                   |
|Paraview surface                   |surface.vtu                        |
+-----------------------------------------------------------------------+
+--------------------------------------------------------------------------------------------------------------------+
|  Inner_Iter|    rms[Rho]|   rms[RhoU]|   rms[RhoV]|   rms[RhoE]|          CD|          CL|         CMz|   LinSolRes|
+--------------------------------------------------------------------------------------------------------------------+
|         625|   -8.392436|   -7.555181|   -8.251300|   -8.010510|    0.010383|   -0.241998|    0.026527|   -0.684505|
|         650|   -8.453771|   -7.571481|   -8.335258|   -8.075854|    0.010297|   -0.242676|    0.026245|   -0.701777|
|         675|   -8.465308|   -7.591667|   -8.401035|   -8.090080|    0.010199|   -0.242936|    0.026182|   -0.694091|
|         700|   -8.537834|   -7.599835|   -8.423049|   -8.163553|    0.010125|   -0.243447|    0.025983|   -0.781634|
+-----------------------------------------------------------------------+
|        File Writing Summary       |              Filename             |
+-----------------------------------------------------------------------+
|SU2 binary restart                 |restart.dat                        |
|Paraview                           |vol_solution.vtu                   |
|Paraview surface                   |surface.vtu                        |
+-----------------------------------------------------------------------+
+--------------------------------------------------------------------------------------------------------------------+
|  Inner_Iter|    rms[Rho]|   rms[RhoU]|   rms[RhoV]|   rms[RhoE]|          CD|          CL|         CMz|   LinSolRes|
+--------------------------------------------------------------------------------------------------------------------+
|         725|   -8.558678|   -7.613426|   -8.454376|   -8.190904|    0.010031|   -0.243697|    0.025916|   -0.833366|
|         750|   -8.531841|   -7.624499|   -8.447475|   -8.168546|    0.009972|   -0.244127|    0.025742|   -0.785496|
|         775|   -8.592409|   -7.631647|   -8.499423|   -8.222769|    0.009899|   -0.244336|    0.025686|   -0.719788|
|         800|   -8.556085|   -7.639163|   -8.478090|   -8.192866|    0.009852|   -0.244577|    0.025588|   -0.842978|
+-----------------------------------------------------------------------+
|        File Writing Summary       |              Filename             |
+-----------------------------------------------------------------------+
|SU2 binary restart                 |restart.dat                        |
|Paraview                           |vol_solution.vtu                   |
|Paraview surface                   |surface.vtu                        |
+-----------------------------------------------------------------------+
+--------------------------------------------------------------------------------------------------------------------+
|  Inner_Iter|    rms[Rho]|   rms[RhoU]|   rms[RhoV]|   rms[RhoE]|          CD|          CL|         CMz|   LinSolRes|
+--------------------------------------------------------------------------------------------------------------------+
|         825|   -8.560644|   -7.646913|   -8.489188|   -8.194951|    0.009814|   -0.244821|    0.025495|   -0.708328|
|         850|   -8.561446|   -7.652716|   -8.480143|   -8.196365|    0.009768|   -0.244984|    0.025439|   -0.817091|
|         875|   -8.580142|   -7.658806|   -8.501108|   -8.215456|    0.009728|   -0.245194|    0.025349|   -0.704393|
|         900|   -8.581008|   -7.665435|   -8.492626|   -8.215959|    0.009693|   -0.245414|    0.025258|   -0.834333|
+-----------------------------------------------------------------------+
|        File Writing Summary       |              Filename             |
+-----------------------------------------------------------------------+
|SU2 binary restart                 |restart.dat                        |
|Paraview                           |vol_solution.vtu                   |
|Paraview surface                   |surface.vtu                        |
+-----------------------------------------------------------------------+
+--------------------------------------------------------------------------------------------------------------------+
|  Inner_Iter|    rms[Rho]|   rms[RhoU]|   rms[RhoV]|   rms[RhoE]|          CD|          CL|         CMz|   LinSolRes|
+--------------------------------------------------------------------------------------------------------------------+
|         925|   -8.573591|   -7.672227|   -8.489005|   -8.207672|    0.009656|   -0.245595|    0.025181|   -0.820833|
|         950|   -8.594663|   -7.679168|   -8.508890|   -8.233415|    0.009625|   -0.245812|    0.025080|   -0.706389|
|         975|   -8.606477|   -7.685747|   -8.511196|   -8.243949|    0.009594|   -0.246035|    0.024979|   -0.762016|
|        1000|   -8.622584|   -7.692559|   -8.512831|   -8.258584|    0.009564|   -0.246235|    0.024882|   -0.768766|
+-----------------------------------------------------------------------+
|        File Writing Summary       |              Filename             |
+-----------------------------------------------------------------------+
|SU2 binary restart                 |restart.dat                        |
|Paraview                           |vol_solution.vtu                   |
|Paraview surface                   |surface.vtu                        |
+-----------------------------------------------------------------------+
+--------------------------------------------------------------------------------------------------------------------+
|  Inner_Iter|    rms[Rho]|   rms[RhoU]|   rms[RhoV]|   rms[RhoE]|          CD|          CL|         CMz|   LinSolRes|
+--------------------------------------------------------------------------------------------------------------------+
|        1025|   -8.622445|   -7.699333|   -8.508040|   -8.263776|    0.009539|   -0.246467|    0.024767|   -0.763303|
|        1050|   -8.609701|   -7.705509|   -8.489632|   -8.250141|    0.009514|   -0.246716|    0.024641|   -0.755131|
|        1075|   -8.609837|   -7.711501|   -8.475804|   -8.250522|    0.009489|   -0.246950|    0.024521|   -0.716671|
|        1100|   -8.611535|   -7.717137|   -8.467868|   -8.253964|    0.009468|   -0.247217|    0.024380|   -0.731210|
+-----------------------------------------------------------------------+
|        File Writing Summary       |              Filename             |
+-----------------------------------------------------------------------+
|SU2 binary restart                 |restart.dat                        |
|Paraview                           |vol_solution.vtu                   |
|Paraview surface                   |surface.vtu                        |
+-----------------------------------------------------------------------+
+--------------------------------------------------------------------------------------------------------------------+
|  Inner_Iter|    rms[Rho]|   rms[RhoU]|   rms[RhoV]|   rms[RhoE]|          CD|          CL|         CMz|   LinSolRes|
+--------------------------------------------------------------------------------------------------------------------+
|        1125|   -8.642057|   -7.722493|   -8.468121|   -8.299609|    0.009448|   -0.247486|    0.024241|   -0.925972|
|        1150|   -8.661601|   -7.727213|   -8.461514|   -8.327549|    0.009428|   -0.247781|    0.024082|   -0.998634|
|        1175|   -8.659353|   -7.730771|   -8.444744|   -8.326468|    0.009409|   -0.248115|    0.023899|   -0.958795|
|        1200|   -8.650008|   -7.732851|   -8.427065|   -8.316766|    0.009393|   -0.248452|    0.023715|   -0.920361|
+-----------------------------------------------------------------------+
|        File Writing Summary       |              Filename             |
+-----------------------------------------------------------------------+
|SU2 binary restart                 |restart.dat                        |
|Paraview                           |vol_solution.vtu                   |
|Paraview surface                   |surface.vtu                        |
+-----------------------------------------------------------------------+
+--------------------------------------------------------------------------------------------------------------------+
|  Inner_Iter|    rms[Rho]|   rms[RhoU]|   rms[RhoV]|   rms[RhoE]|          CD|          CL|         CMz|   LinSolRes|
+--------------------------------------------------------------------------------------------------------------------+
|        1225|   -8.640686|   -7.734114|   -8.414662|   -8.307022|    0.009375|   -0.248805|    0.023521|   -0.886315|
|        1250|   -8.637127|   -7.734938|   -8.400889|   -8.303309|    0.009359|   -0.249181|    0.023316|   -0.852815|
|        1275|   -8.630841|   -7.734802|   -8.385811|   -8.296326|    0.009342|   -0.249559|    0.023109|   -0.822751|
|        1300|   -8.618445|   -7.733390|   -8.373394|   -8.282513|    0.009325|   -0.249951|    0.022894|   -0.794094|
+-----------------------------------------------------------------------+
|        File Writing Summary       |              Filename             |
+-----------------------------------------------------------------------+
|SU2 binary restart                 |restart.dat                        |
|Paraview                           |vol_solution.vtu                   |
|Paraview surface                   |surface.vtu                        |
+-----------------------------------------------------------------------+
+--------------------------------------------------------------------------------------------------------------------+
|  Inner_Iter|    rms[Rho]|   rms[RhoU]|   rms[RhoV]|   rms[RhoE]|          CD|          CL|         CMz|   LinSolRes|
+--------------------------------------------------------------------------------------------------------------------+
|        1325|   -8.610616|   -7.731896|   -8.364186|   -8.273555|    0.009309|   -0.250358|    0.022672|   -0.768186|
|        1350|   -8.605497|   -7.730649|   -8.357255|   -8.268165|    0.009291|   -0.250764|    0.022451|   -0.751026|
|        1375|   -8.598764|   -7.728716|   -8.351568|   -8.260798|    0.009274|   -0.251182|    0.022224|   -0.736483|
|        1400|   -8.590977|   -7.726297|   -8.346241|   -8.251429|    0.009257|   -0.251605|    0.021994|   -0.715828|
+-----------------------------------------------------------------------+
|        File Writing Summary       |              Filename             |
+-----------------------------------------------------------------------+
|SU2 binary restart                 |restart.dat                        |
|Paraview                           |vol_solution.vtu                   |
|Paraview surface                   |surface.vtu                        |
+-----------------------------------------------------------------------+
+--------------------------------------------------------------------------------------------------------------------+
|  Inner_Iter|    rms[Rho]|   rms[RhoU]|   rms[RhoV]|   rms[RhoE]|          CD|          CL|         CMz|   LinSolRes|
+--------------------------------------------------------------------------------------------------------------------+
|        1425|   -8.585398|   -7.724406|   -8.342491|   -8.244795|    0.009239|   -0.252031|    0.021763|   -0.701723|
|        1450|   -8.582311|   -7.723105|   -8.341899|   -8.241773|    0.009220|   -0.252457|    0.021534|   -0.804598|
|        1475|   -8.580268|   -7.722172|   -8.337710|   -8.239774|    0.009201|   -0.252893|    0.021299|   -0.802720|
|        1500|   -8.606298|   -7.721866|   -8.345880|   -8.272161|    0.009182|   -0.253328|    0.021066|   -0.766880|
+-----------------------------------------------------------------------+
|        File Writing Summary       |              Filename             |
+-----------------------------------------------------------------------+
|SU2 binary restart                 |restart.dat                        |
|Paraview                           |vol_solution.vtu                   |
|Paraview surface                   |surface.vtu                        |
+-----------------------------------------------------------------------+
+--------------------------------------------------------------------------------------------------------------------+
|  Inner_Iter|    rms[Rho]|   rms[RhoU]|   rms[RhoV]|   rms[RhoE]|          CD|          CL|         CMz|   LinSolRes|
+--------------------------------------------------------------------------------------------------------------------+
|        1525|   -8.607820|   -7.722415|   -8.348162|   -8.275620|    0.009162|   -0.253759|    0.020836|   -0.763519|
|        1550|   -8.610050|   -7.724172|   -8.351886|   -8.278778|    0.009142|   -0.254194|    0.020603|   -0.768468|
|        1575|   -8.599086|   -7.726787|   -8.350685|   -8.264827|    0.009122|   -0.254624|    0.020374|   -0.731699|
|        1600|   -8.611320|   -7.730761|   -8.360257|   -8.279673|    0.009102|   -0.255048|    0.020148|   -0.750091|
+-----------------------------------------------------------------------+
|        File Writing Summary       |              Filename             |
+-----------------------------------------------------------------------+
|SU2 binary restart                 |restart.dat                        |
|Paraview                           |vol_solution.vtu                   |
|Paraview surface                   |surface.vtu                        |
+-----------------------------------------------------------------------+
+--------------------------------------------------------------------------------------------------------------------+
|  Inner_Iter|    rms[Rho]|   rms[RhoU]|   rms[RhoV]|   rms[RhoE]|          CD|          CL|         CMz|   LinSolRes|
+--------------------------------------------------------------------------------------------------------------------+
|        1625|   -8.606299|   -7.735541|   -8.363851|   -8.273184|    0.009081|   -0.255465|    0.019928|   -0.720205|
|        1650|   -8.601499|   -7.741316|   -8.368718|   -8.266081|    0.009060|   -0.255878|    0.019709|   -0.780128|
|        1675|   -8.629099|   -7.748150|   -8.384159|   -8.301414|    0.009039|   -0.256284|    0.019494|   -0.742132|
|        1700|   -8.625402|   -7.755185|   -8.388165|   -8.294268|    0.009018|   -0.256681|    0.019284|   -0.714195|
+-----------------------------------------------------------------------+
|        File Writing Summary       |              Filename             |
+-----------------------------------------------------------------------+
|SU2 binary restart                 |restart.dat                        |
|Paraview                           |vol_solution.vtu                   |
|Paraview surface                   |surface.vtu                        |
+-----------------------------------------------------------------------+
+--------------------------------------------------------------------------------------------------------------------+
|  Inner_Iter|    rms[Rho]|   rms[RhoU]|   rms[RhoV]|   rms[RhoE]|          CD|          CL|         CMz|   LinSolRes|
+--------------------------------------------------------------------------------------------------------------------+
|        1725|   -8.620379|   -7.762807|   -8.395007|   -8.286408|    0.008997|   -0.257070|    0.019079|   -0.776769|
|        1750|   -8.654315|   -7.771411|   -8.413454|   -8.331167|    0.008976|   -0.257452|    0.018877|   -0.748332|
|        1775|   -8.661568|   -7.779999|   -8.422679|   -8.339325|    0.008955|   -0.257827|    0.018679|   -0.732552|
|        1800|   -8.670513|   -7.788907|   -8.433270|   -8.350067|    0.008934|   -0.258192|    0.018485|   -0.735680|
+-----------------------------------------------------------------------+
|        File Writing Summary       |              Filename             |
+-----------------------------------------------------------------------+
|SU2 binary restart                 |restart.dat                        |
|Paraview                           |vol_solution.vtu                   |
|Paraview surface                   |surface.vtu                        |
+-----------------------------------------------------------------------+
+--------------------------------------------------------------------------------------------------------------------+
|  Inner_Iter|    rms[Rho]|   rms[RhoU]|   rms[RhoV]|   rms[RhoE]|          CD|          CL|         CMz|   LinSolRes|
+--------------------------------------------------------------------------------------------------------------------+
|        1825|   -8.662426|   -7.797913|   -8.436185|   -8.335827|    0.008914|   -0.258549|    0.018297|   -0.781550|
|        1850|   -8.685202|   -7.807570|   -8.450647|   -8.366481|    0.008893|   -0.258901|    0.018110|   -0.724238|
|        1875|   -8.679179|   -7.816876|   -8.453827|   -8.354903|    0.008874|   -0.259246|    0.017927|   -0.777175|
|        1900|   -8.701808|   -7.826741|   -8.469701|   -8.385969|    0.008854|   -0.259581|    0.017749|   -0.725299|
+-----------------------------------------------------------------------+
|        File Writing Summary       |              Filename             |
+-----------------------------------------------------------------------+
|SU2 binary restart                 |restart.dat                        |
|Paraview                           |vol_solution.vtu                   |
|Paraview surface                   |surface.vtu                        |
+-----------------------------------------------------------------------+
+--------------------------------------------------------------------------------------------------------------------+
|  Inner_Iter|    rms[Rho]|   rms[RhoU]|   rms[RhoV]|   rms[RhoE]|          CD|          CL|         CMz|   LinSolRes|
+--------------------------------------------------------------------------------------------------------------------+
|        1925|   -8.697776|   -7.836199|   -8.472770|   -8.376115|    0.008834|   -0.259910|    0.017574|   -0.780409|
|        1950|   -8.720484|   -7.846118|   -8.489980|   -8.407194|    0.008815|   -0.260234|    0.017402|   -0.720874|
|        1975|   -8.715806|   -7.855835|   -8.491249|   -8.396632|    0.008797|   -0.260548|    0.017234|   -0.764128|
|        2000|   -8.737074|   -7.865715|   -8.507617|   -8.425926|    0.008778|   -0.260858|    0.017069|   -0.729407|
+-----------------------------------------------------------------------+
|        File Writing Summary       |              Filename             |
+-----------------------------------------------------------------------+
|SU2 binary restart                 |restart.dat                        |
|Paraview                           |vol_solution.vtu                   |
|Paraview surface                   |surface.vtu                        |
+-----------------------------------------------------------------------+
+--------------------------------------------------------------------------------------------------------------------+
|  Inner_Iter|    rms[Rho]|   rms[RhoU]|   rms[RhoV]|   rms[RhoE]|          CD|          CL|         CMz|   LinSolRes|
+--------------------------------------------------------------------------------------------------------------------+
|        2025|   -8.733742|   -7.875009|   -8.509081|   -8.417182|    0.008760|   -0.261160|    0.016908|   -0.752832|
|        2050|   -8.752306|   -7.884581|   -8.523292|   -8.442270|    0.008743|   -0.261457|    0.016749|   -0.723657|
|        2075|   -8.748722|   -7.893631|   -8.526366|   -8.433533|    0.008725|   -0.261748|    0.016593|   -0.741102|
|        2100|   -8.767738|   -7.902997|   -8.539156|   -8.459009|    0.008709|   -0.262034|    0.016440|   -0.705836|
+-----------------------------------------------------------------------+
|        File Writing Summary       |              Filename             |
+-----------------------------------------------------------------------+
|SU2 binary restart                 |restart.dat                        |
|Paraview                           |vol_solution.vtu                   |
|Paraview surface                   |surface.vtu                        |
+-----------------------------------------------------------------------+
+--------------------------------------------------------------------------------------------------------------------+
|  Inner_Iter|    rms[Rho]|   rms[RhoU]|   rms[RhoV]|   rms[RhoE]|          CD|          CL|         CMz|   LinSolRes|
+--------------------------------------------------------------------------------------------------------------------+
|        2125|   -8.763753|   -7.911855|   -8.542005|   -8.449533|    0.008692|   -0.262315|    0.016290|   -0.743228|
|        2150|   -8.785486|   -7.921112|   -8.556427|   -8.479116|    0.008676|   -0.262591|    0.016142|   -0.703529|
|        2175|   -8.782219|   -7.929808|   -8.557108|   -8.470376|    0.008660|   -0.262861|    0.015997|   -0.740840|
|        2200|   -8.788856|   -7.938550|   -8.564697|   -8.477153|    0.008644|   -0.263127|    0.015854|   -0.745058|
+-----------------------------------------------------------------------+
|        File Writing Summary       |              Filename             |
+-----------------------------------------------------------------------+
|SU2 binary restart                 |restart.dat                        |
|Paraview                           |vol_solution.vtu                   |
|Paraview surface                   |surface.vtu                        |
+-----------------------------------------------------------------------+
+--------------------------------------------------------------------------------------------------------------------+
|  Inner_Iter|    rms[Rho]|   rms[RhoU]|   rms[RhoV]|   rms[RhoE]|          CD|          CL|         CMz|   LinSolRes|
+--------------------------------------------------------------------------------------------------------------------+
|        2225|   -8.819998|   -7.947578|   -8.580508|   -8.520341|    0.008629|   -0.263388|    0.015715|   -0.712604|
|        2250|   -8.815009|   -7.956041|   -8.585165|   -8.510368|    0.008614|   -0.263646|    0.015576|   -0.699234|
|        2275|   -8.822216|   -7.964431|   -8.592252|   -8.517658|    0.008600|   -0.263901|    0.015440|   -0.789020|
|        2300|   -8.820872|   -7.972516|   -8.595358|   -8.512888|    0.008586|   -0.264150|    0.015306|   -0.720793|
+-----------------------------------------------------------------------+
|        File Writing Summary       |              Filename             |
+-----------------------------------------------------------------------+
|SU2 binary restart                 |restart.dat                        |
|Paraview                           |vol_solution.vtu                   |
|Paraview surface                   |surface.vtu                        |
+-----------------------------------------------------------------------+
+--------------------------------------------------------------------------------------------------------------------+
|  Inner_Iter|    rms[Rho]|   rms[RhoU]|   rms[RhoV]|   rms[RhoE]|          CD|          CL|         CMz|   LinSolRes|
+--------------------------------------------------------------------------------------------------------------------+
|        2325|   -8.851402|   -7.981029|   -8.610285|   -8.555189|    0.008572|   -0.264396|    0.015174|   -0.703708|
|        2350|   -8.844515|   -7.989183|   -8.614227|   -8.542325|    0.008558|   -0.264639|    0.015044|   -0.703141|
|        2375|   -8.850594|   -7.997429|   -8.620132|   -8.548509|    0.008545|   -0.264877|    0.014916|   -0.787258|
|        2400|   -8.872229|   -8.005611|   -8.630740|   -8.578942|    0.008532|   -0.265105|    0.014795|   -0.784133|
+-----------------------------------------------------------------------+
|        File Writing Summary       |              Filename             |
+-----------------------------------------------------------------------+
|SU2 binary restart                 |restart.dat                        |
|Paraview                           |vol_solution.vtu                   |
|Paraview surface                   |surface.vtu                        |
+-----------------------------------------------------------------------+
+--------------------------------------------------------------------------------------------------------------------+
|  Inner_Iter|    rms[Rho]|   rms[RhoU]|   rms[RhoV]|   rms[RhoE]|          CD|          CL|         CMz|   LinSolRes|
+--------------------------------------------------------------------------------------------------------------------+
|        2425|   -8.879556|   -8.013390|   -8.638073|   -8.586777|    0.008519|   -0.265341|    0.014668|   -0.793167|
|        2450|   -8.887422|   -8.020959|   -8.645293|   -8.595627|    0.008507|   -0.265574|    0.014543|   -0.789963|
|        2475|   -8.893277|   -8.028425|   -8.652585|   -8.602172|    0.008495|   -0.265801|    0.014422|   -0.785260|
|        2500|   -8.900131|   -8.035872|   -8.660161|   -8.609873|    0.008483|   -0.266026|    0.014301|   -0.778358|
+-----------------------------------------------------------------------+
|        File Writing Summary       |              Filename             |
+-----------------------------------------------------------------------+
|SU2 binary restart                 |restart.dat                        |
|Paraview                           |vol_solution.vtu                   |
|Paraview surface                   |surface.vtu                        |
+-----------------------------------------------------------------------+
+--------------------------------------------------------------------------------------------------------------------+
|  Inner_Iter|    rms[Rho]|   rms[RhoU]|   rms[RhoV]|   rms[RhoE]|          CD|          CL|         CMz|   LinSolRes|
+--------------------------------------------------------------------------------------------------------------------+
|        2525|   -8.907370|   -8.043728|   -8.666464|   -8.618283|    0.008471|   -0.266248|    0.014182|   -0.773600|
|        2550|   -8.913274|   -8.052093|   -8.671484|   -8.624960|    0.008460|   -0.266465|    0.014066|   -0.770705|
|        2575|   -8.917775|   -8.060118|   -8.677060|   -8.630122|    0.008449|   -0.266680|    0.013951|   -0.767334|
|        2600|   -8.924133|   -8.067608|   -8.683090|   -8.637066|    0.008438|   -0.266893|    0.013837|   -0.767132|
+-----------------------------------------------------------------------+
|        File Writing Summary       |              Filename             |
+-----------------------------------------------------------------------+
|SU2 binary restart                 |restart.dat                        |
|Paraview                           |vol_solution.vtu                   |
|Paraview surface                   |surface.vtu                        |
+-----------------------------------------------------------------------+
+--------------------------------------------------------------------------------------------------------------------+
|  Inner_Iter|    rms[Rho]|   rms[RhoU]|   rms[RhoV]|   rms[RhoE]|          CD|          CL|         CMz|   LinSolRes|
+--------------------------------------------------------------------------------------------------------------------+
|        2625|   -8.930415|   -8.075119|   -8.689643|   -8.644225|    0.008427|   -0.267101|    0.013726|   -0.768122|
|        2650|   -8.936484|   -8.082530|   -8.695915|   -8.651035|    0.008417|   -0.267308|    0.013616|   -0.767764|
|        2675|   -8.942137|   -8.089880|   -8.702353|   -8.657352|    0.008407|   -0.267511|    0.013508|   -0.767120|
|        2700|   -8.948186|   -8.097351|   -8.708791|   -8.664314|    0.008397|   -0.267711|    0.013401|   -0.766429|
+-----------------------------------------------------------------------+
|        File Writing Summary       |              Filename             |
+-----------------------------------------------------------------------+
|SU2 binary restart                 |restart.dat                        |
|Paraview                           |vol_solution.vtu                   |
|Paraview surface                   |surface.vtu                        |
+-----------------------------------------------------------------------+
+--------------------------------------------------------------------------------------------------------------------+
|  Inner_Iter|    rms[Rho]|   rms[RhoU]|   rms[RhoV]|   rms[RhoE]|          CD|          CL|         CMz|   LinSolRes|
+--------------------------------------------------------------------------------------------------------------------+
|        2725|   -8.954136|   -8.104857|   -8.714612|   -8.671261|    0.008387|   -0.267909|    0.013295|   -0.765272|
|        2750|   -8.959885|   -8.112207|   -8.720403|   -8.677778|    0.008377|   -0.268104|    0.013191|   -0.763653|
|        2775|   -8.965444|   -8.119511|   -8.726365|   -8.684215|    0.008368|   -0.268297|    0.013089|   -0.761754|
|        2800|   -8.971348|   -8.126867|   -8.732032|   -8.691053|    0.008359|   -0.268487|    0.012988|   -0.759613|
+-----------------------------------------------------------------------+
|        File Writing Summary       |              Filename             |
+-----------------------------------------------------------------------+
|SU2 binary restart                 |restart.dat                        |
|Paraview                           |vol_solution.vtu                   |
|Paraview surface                   |surface.vtu                        |
+-----------------------------------------------------------------------+
+--------------------------------------------------------------------------------------------------------------------+
|  Inner_Iter|    rms[Rho]|   rms[RhoU]|   rms[RhoV]|   rms[RhoE]|          CD|          CL|         CMz|   LinSolRes|
+--------------------------------------------------------------------------------------------------------------------+
|        2825|   -8.976966|   -8.134186|   -8.737637|   -8.697551|    0.008350|   -0.268675|    0.012888|   -0.757305|
|        2850|   -8.982396|   -8.141454|   -8.743381|   -8.703887|    0.008341|   -0.268860|    0.012789|   -0.754805|
|        2875|   -8.988150|   -8.148725|   -8.749094|   -8.710539|    0.008333|   -0.269043|    0.012692|   -0.752003|
|        2900|   -8.993837|   -8.156026|   -8.754849|   -8.717181|    0.008324|   -0.269223|    0.012597|   -0.748829|
+-----------------------------------------------------------------------+
|        File Writing Summary       |              Filename             |
+-----------------------------------------------------------------------+
|SU2 binary restart                 |restart.dat                        |
|Paraview                           |vol_solution.vtu                   |
|Paraview surface                   |surface.vtu                        |
+-----------------------------------------------------------------------+
+--------------------------------------------------------------------------------------------------------------------+
|  Inner_Iter|    rms[Rho]|   rms[RhoU]|   rms[RhoV]|   rms[RhoE]|          CD|          CL|         CMz|   LinSolRes|
+--------------------------------------------------------------------------------------------------------------------+
|        2925|   -8.999383|   -8.163309|   -8.760548|   -8.723678|    0.008316|   -0.269402|    0.012502|   -0.745513|
|        2950|   -9.004925|   -8.170551|   -8.766273|   -8.730088|    0.008308|   -0.269578|    0.012409|   -0.742192|
|        2975|   -9.010463|   -8.177805|   -8.772003|   -8.736524|    0.008300|   -0.269752|    0.012317|   -0.738282|
|        3000|   -9.016033|   -8.185061|   -8.777640|   -8.743063|    0.008293|   -0.269924|    0.012226|   -0.733947|
+-----------------------------------------------------------------------+
|        File Writing Summary       |              Filename             |
+-----------------------------------------------------------------------+
|SU2 binary restart                 |restart.dat                        |
|Paraview                           |vol_solution.vtu                   |
|Paraview surface                   |surface.vtu                        |
+-----------------------------------------------------------------------+
+--------------------------------------------------------------------------------------------------------------------+
|  Inner_Iter|    rms[Rho]|   rms[RhoU]|   rms[RhoV]|   rms[RhoE]|          CD|          CL|         CMz|   LinSolRes|
+--------------------------------------------------------------------------------------------------------------------+
|        3025|   -9.021801|   -8.192271|   -8.783247|   -8.750045|    0.008285|   -0.270093|    0.012136|   -0.731222|
|        3050|   -9.027736|   -8.199455|   -8.788940|   -8.757471|    0.008278|   -0.270261|    0.012048|   -0.729558|
|        3075|   -9.033479|   -8.206640|   -8.794701|   -8.764410|    0.008271|   -0.270426|    0.011961|   -0.727270|
|        3100|   -9.038939|   -8.213825|   -8.800431|   -8.770847|    0.008263|   -0.270590|    0.011874|   -0.728287|
+-----------------------------------------------------------------------+
|        File Writing Summary       |              Filename             |
+-----------------------------------------------------------------------+
|SU2 binary restart                 |restart.dat                        |
|Paraview                           |vol_solution.vtu                   |
|Paraview surface                   |surface.vtu                        |
+-----------------------------------------------------------------------+
+--------------------------------------------------------------------------------------------------------------------+
|  Inner_Iter|    rms[Rho]|   rms[RhoU]|   rms[RhoV]|   rms[RhoE]|          CD|          CL|         CMz|   LinSolRes|
+--------------------------------------------------------------------------------------------------------------------+
|        3125|   -9.044242|   -8.221011|   -8.806092|   -8.777064|    0.008257|   -0.270751|    0.011789|   -0.730198|
|        3150|   -9.049001|   -8.228205|   -8.811511|   -8.782207|    0.008250|   -0.270910|    0.011705|   -0.731097|
|        3175|   -9.054052|   -8.235441|   -8.816867|   -8.787960|    0.008243|   -0.271068|    0.011622|   -0.728295|
|        3200|   -9.059383|   -8.242675|   -8.822354|   -8.794299|    0.008237|   -0.271223|    0.011541|   -0.723115|
+-----------------------------------------------------------------------+
|        File Writing Summary       |              Filename             |
+-----------------------------------------------------------------------+
|SU2 binary restart                 |restart.dat                        |
|Paraview                           |vol_solution.vtu                   |
|Paraview surface                   |surface.vtu                        |
+-----------------------------------------------------------------------+
+--------------------------------------------------------------------------------------------------------------------+
|  Inner_Iter|    rms[Rho]|   rms[RhoU]|   rms[RhoV]|   rms[RhoE]|          CD|          CL|         CMz|   LinSolRes|
+--------------------------------------------------------------------------------------------------------------------+
|        3225|   -9.064797|   -8.249902|   -8.827969|   -8.800728|    0.008230|   -0.271377|    0.011460|   -0.717225|
|        3250|   -9.071115|   -8.257156|   -8.833841|   -8.808929|    0.008224|   -0.271529|    0.011380|   -0.714982|
|        3275|   -9.076827|   -8.264406|   -8.839861|   -8.815934|    0.008218|   -0.271678|    0.011302|   -0.714262|
|        3300|   -9.082214|   -8.271661|   -8.845691|   -8.822268|    0.008212|   -0.271826|    0.011224|   -0.717968|
+-----------------------------------------------------------------------+
|        File Writing Summary       |              Filename             |
+-----------------------------------------------------------------------+
|SU2 binary restart                 |restart.dat                        |
|Paraview                           |vol_solution.vtu                   |
|Paraview surface                   |surface.vtu                        |
+-----------------------------------------------------------------------+
+--------------------------------------------------------------------------------------------------------------------+
|  Inner_Iter|    rms[Rho]|   rms[RhoU]|   rms[RhoV]|   rms[RhoE]|          CD|          CL|         CMz|   LinSolRes|
+--------------------------------------------------------------------------------------------------------------------+
|        3325|   -9.086794|   -8.278924|   -8.851196|   -8.827146|    0.008206|   -0.271972|    0.011148|   -0.718629|
|        3350|   -9.092106|   -8.286216|   -8.856823|   -8.833467|    0.008200|   -0.272116|    0.011072|   -0.713175|
|        3375|   -9.097684|   -8.293537|   -8.862553|   -8.840287|    0.008195|   -0.272259|    0.010998|   -0.707139|
|        3400|   -9.103971|   -8.300861|   -8.868549|   -8.848563|    0.008189|   -0.272399|    0.010924|   -0.704820|
+-----------------------------------------------------------------------+
|        File Writing Summary       |              Filename             |
+-----------------------------------------------------------------------+
|SU2 binary restart                 |restart.dat                        |
|Paraview                           |vol_solution.vtu                   |
|Paraview surface                   |surface.vtu                        |
+-----------------------------------------------------------------------+
+--------------------------------------------------------------------------------------------------------------------+
|  Inner_Iter|    rms[Rho]|   rms[RhoU]|   rms[RhoV]|   rms[RhoE]|          CD|          CL|         CMz|   LinSolRes|
+--------------------------------------------------------------------------------------------------------------------+
|        3425|   -9.109538|   -8.308170|   -8.874520|   -8.855315|    0.008184|   -0.272538|    0.010852|   -0.708737|
|        3450|   -9.114107|   -8.315501|   -8.880055|   -8.860168|    0.008178|   -0.272675|    0.010780|   -0.710375|
|        3475|   -9.119344|   -8.322835|   -8.885833|   -8.866410|    0.008173|   -0.272810|    0.010710|   -0.704441|
|        3500|   -9.125454|   -8.330204|   -8.891916|   -8.874338|    0.008168|   -0.272944|    0.010640|   -0.699572|
+-----------------------------------------------------------------------+
|        File Writing Summary       |              Filename             |
+-----------------------------------------------------------------------+
|SU2 binary restart                 |restart.dat                        |
|Paraview                           |vol_solution.vtu                   |
|Paraview surface                   |surface.vtu                        |
+-----------------------------------------------------------------------+
+--------------------------------------------------------------------------------------------------------------------+
|  Inner_Iter|    rms[Rho]|   rms[RhoU]|   rms[RhoV]|   rms[RhoE]|          CD|          CL|         CMz|   LinSolRes|
+--------------------------------------------------------------------------------------------------------------------+
|        3525|   -9.131486|   -8.337577|   -8.898270|   -8.882098|    0.008163|   -0.273075|    0.010572|   -0.699865|
|        3550|   -9.136356|   -8.344969|   -8.904134|   -8.887509|    0.008158|   -0.273205|    0.010504|   -0.704322|
|        3575|   -9.141477|   -8.352389|   -8.909903|   -8.893519|    0.008153|   -0.273333|    0.010437|   -0.699769|
|        3600|   -9.147409|   -8.359830|   -8.915967|   -8.901198|    0.008148|   -0.273460|    0.010372|   -0.694213|
+-----------------------------------------------------------------------+
|        File Writing Summary       |              Filename             |
+-----------------------------------------------------------------------+
|SU2 binary restart                 |restart.dat                        |
|Paraview                           |vol_solution.vtu                   |
|Paraview surface                   |surface.vtu                        |
+-----------------------------------------------------------------------+
+--------------------------------------------------------------------------------------------------------------------+
|  Inner_Iter|    rms[Rho]|   rms[RhoU]|   rms[RhoV]|   rms[RhoE]|          CD|          CL|         CMz|   LinSolRes|
+--------------------------------------------------------------------------------------------------------------------+
|        3625|   -9.153506|   -8.367262|   -8.922330|   -8.909173|    0.008144|   -0.273585|    0.010307|   -0.694895|
|        3650|   -9.158244|   -8.374716|   -8.928112|   -8.914341|    0.008139|   -0.273708|    0.010243|   -0.698827|
|        3675|   -9.163415|   -8.382188|   -8.933979|   -8.920517|    0.008135|   -0.273830|    0.010180|   -0.692664|
|        3700|   -9.169816|   -8.389693|   -8.940268|   -8.929245|    0.008130|   -0.273949|    0.010117|   -0.688479|
+-----------------------------------------------------------------------+
|        File Writing Summary       |              Filename             |
+-----------------------------------------------------------------------+
|SU2 binary restart                 |restart.dat                        |
|Paraview                           |vol_solution.vtu                   |
|Paraview surface                   |surface.vtu                        |
+-----------------------------------------------------------------------+
+--------------------------------------------------------------------------------------------------------------------+
|  Inner_Iter|    rms[Rho]|   rms[RhoU]|   rms[RhoV]|   rms[RhoE]|          CD|          CL|         CMz|   LinSolRes|
+--------------------------------------------------------------------------------------------------------------------+
|        3725|   -9.175399|   -8.397164|   -8.946680|   -8.936160|    0.008126|   -0.274068|    0.010056|   -0.692960|
|        3750|   -9.180195|   -8.404652|   -8.952647|   -8.941548|    0.008122|   -0.274184|    0.009996|   -0.691637|
|        3775|   -9.186069|   -8.412163|   -8.958993|   -8.949213|    0.008117|   -0.274299|    0.009936|   -0.685685|
|        3800|   -9.192256|   -8.419692|   -8.965691|   -8.957472|    0.008113|   -0.274413|    0.009877|   -0.687419|
+-----------------------------------------------------------------------+
|        File Writing Summary       |              Filename             |
+-----------------------------------------------------------------------+
|SU2 binary restart                 |restart.dat                        |
|Paraview                           |vol_solution.vtu                   |
|Paraview surface                   |surface.vtu                        |
+-----------------------------------------------------------------------+
+--------------------------------------------------------------------------------------------------------------------+
|  Inner_Iter|    rms[Rho]|   rms[RhoU]|   rms[RhoV]|   rms[RhoE]|          CD|          CL|         CMz|   LinSolRes|
+--------------------------------------------------------------------------------------------------------------------+
|        3825|   -9.196962|   -8.427262|   -8.971670|   -8.962640|    0.008109|   -0.274525|    0.009819|   -0.689295|
|        3850|   -9.202489|   -8.434824|   -8.977851|   -8.969657|    0.008105|   -0.274635|    0.009762|   -0.682598|
|        3875|   -9.208806|   -8.442382|   -8.984471|   -8.978352|    0.008102|   -0.274744|    0.009706|   -0.683219|
|        3900|   -9.213531|   -8.449952|   -8.990508|   -8.983590|    0.008098|   -0.274851|    0.009651|   -0.685912|
+-----------------------------------------------------------------------+
|        File Writing Summary       |              Filename             |
+-----------------------------------------------------------------------+
|SU2 binary restart                 |restart.dat                        |
|Paraview                           |vol_solution.vtu                   |
|Paraview surface                   |surface.vtu                        |
+-----------------------------------------------------------------------+
+--------------------------------------------------------------------------------------------------------------------+
|  Inner_Iter|    rms[Rho]|   rms[RhoU]|   rms[RhoV]|   rms[RhoE]|          CD|          CL|         CMz|   LinSolRes|
+--------------------------------------------------------------------------------------------------------------------+
|        3925|   -9.219090|   -8.457533|   -8.996791|   -8.990726|    0.008094|   -0.274957|    0.009596|   -0.679325|
|        3950|   -9.225364|   -8.465121|   -9.003532|   -8.999393|    0.008090|   -0.275061|    0.009542|   -0.680611|
|        3975|   -9.230069|   -8.472718|   -9.009656|   -9.004652|    0.008087|   -0.275164|    0.009489|   -0.681947|
|        4000|   -9.235893|   -8.480326|   -9.016075|   -9.012482|    0.008083|   -0.275265|    0.009437|   -0.675999|
+-----------------------------------------------------------------------+
|        File Writing Summary       |              Filename             |
+-----------------------------------------------------------------------+
|SU2 binary restart                 |restart.dat                        |
|Paraview                           |vol_solution.vtu                   |
|Paraview surface                   |surface.vtu                        |
+-----------------------------------------------------------------------+
+--------------------------------------------------------------------------------------------------------------------+
|  Inner_Iter|    rms[Rho]|   rms[RhoU]|   rms[RhoV]|   rms[RhoE]|          CD|          CL|         CMz|   LinSolRes|
+--------------------------------------------------------------------------------------------------------------------+
|        4025|   -9.241707|   -8.487919|   -9.022821|   -9.020186|    0.008080|   -0.275365|    0.009386|   -0.679155|
|        4050|   -9.246490|   -8.495548|   -9.029008|   -9.025699|    0.008076|   -0.275463|    0.009335|   -0.677155|
|        4075|   -9.252632|   -8.503205|   -9.035659|   -9.034317|    0.008073|   -0.275560|    0.009285|   -0.672634|
|        4100|   -9.257810|   -8.510858|   -9.042192|   -9.040600|    0.008070|   -0.275656|    0.009236|   -0.677864|
+-----------------------------------------------------------------------+
|        File Writing Summary       |              Filename             |
+-----------------------------------------------------------------------+
|SU2 binary restart                 |restart.dat                        |
|Paraview                           |vol_solution.vtu                   |
|Paraview surface                   |surface.vtu                        |
+-----------------------------------------------------------------------+
+--------------------------------------------------------------------------------------------------------------------+
|  Inner_Iter|    rms[Rho]|   rms[RhoU]|   rms[RhoV]|   rms[RhoE]|          CD|          CL|         CMz|   LinSolRes|
+--------------------------------------------------------------------------------------------------------------------+
|        4125|   -9.263055|   -8.518527|   -9.048649|   -9.047203|    0.008067|   -0.275750|    0.009188|   -0.671974|
|        4150|   -9.269394|   -8.526218|   -9.055587|   -9.056301|    0.008063|   -0.275843|    0.009140|   -0.672598|
|        4175|   -9.274148|   -8.533913|   -9.061937|   -9.061752|    0.008060|   -0.275934|    0.009093|   -0.673404|
|        4200|   -9.280092|   -8.541627|   -9.068624|   -9.070090|    0.008057|   -0.276024|    0.009047|   -0.668239|
+-----------------------------------------------------------------------+
|        File Writing Summary       |              Filename             |
+-----------------------------------------------------------------------+
|SU2 binary restart                 |restart.dat                        |
|Paraview                           |vol_solution.vtu                   |
|Paraview surface                   |surface.vtu                        |
+-----------------------------------------------------------------------+
+--------------------------------------------------------------------------------------------------------------------+
|  Inner_Iter|    rms[Rho]|   rms[RhoU]|   rms[RhoV]|   rms[RhoE]|          CD|          CL|         CMz|   LinSolRes|
+--------------------------------------------------------------------------------------------------------------------+
|        4225|   -9.285327|   -8.549347|   -9.075252|   -9.076625|    0.008054|   -0.276113|    0.009001|   -0.673063|
|        4250|   -9.290589|   -8.557077|   -9.081731|   -9.083429|    0.008051|   -0.276200|    0.008956|   -0.667472|
|        4275|   -9.296696|   -8.564795|   -9.088696|   -9.092180|    0.008049|   -0.276287|    0.008912|   -0.669038|
|        4300|   -9.301461|   -8.572519|   -9.095178|   -9.097754|    0.008046|   -0.276371|    0.008869|   -0.667642|
+-----------------------------------------------------------------------+
|        File Writing Summary       |              Filename             |
+-----------------------------------------------------------------------+
|SU2 binary restart                 |restart.dat                        |
|Paraview                           |vol_solution.vtu                   |
|Paraview surface                   |surface.vtu                        |
+-----------------------------------------------------------------------+
+--------------------------------------------------------------------------------------------------------------------+
|  Inner_Iter|    rms[Rho]|   rms[RhoU]|   rms[RhoV]|   rms[RhoE]|          CD|          CL|         CMz|   LinSolRes|
+--------------------------------------------------------------------------------------------------------------------+
|        4325|   -9.307558|   -8.580252|   -9.102177|   -9.106634|    0.008043|   -0.276455|    0.008826|   -0.664774|
|        4350|   -9.312517|   -8.587997|   -9.108840|   -9.112654|    0.008040|   -0.276537|    0.008784|   -0.668099|
|        4375|   -9.318254|   -8.595758|   -9.115661|   -9.120775|    0.008038|   -0.276618|    0.008742|   -0.662721|
|        4400|   -9.323462|   -8.603511|   -9.122483|   -9.127480|    0.008035|   -0.276698|    0.008701|   -0.667048|
+-----------------------------------------------------------------------+
|        File Writing Summary       |              Filename             |
+-----------------------------------------------------------------------+
|SU2 binary restart                 |restart.dat                        |
|Paraview                           |vol_solution.vtu                   |
|Paraview surface                   |surface.vtu                        |
+-----------------------------------------------------------------------+
+--------------------------------------------------------------------------------------------------------------------+
|  Inner_Iter|    rms[Rho]|   rms[RhoU]|   rms[RhoV]|   rms[RhoE]|          CD|          CL|         CMz|   LinSolRes|
+--------------------------------------------------------------------------------------------------------------------+
|        4425|   -9.328828|   -8.611278|   -9.129139|   -9.134763|    0.008032|   -0.276777|    0.008661|   -0.661773|
|        4450|   -9.334443|   -8.619038|   -9.136108|   -9.142593|    0.008030|   -0.276854|    0.008621|   -0.664485|
|        4475|   -9.339425|   -8.626828|   -9.142727|   -9.148920|    0.008027|   -0.276931|    0.008582|   -0.660744|
|        4500|   -9.345413|   -8.634630|   -9.149841|   -9.157814|    0.008025|   -0.277006|    0.008544|   -0.661820|
+-----------------------------------------------------------------------+
|        File Writing Summary       |              Filename             |
+-----------------------------------------------------------------------+
|SU2 binary restart                 |restart.dat                        |
|Paraview                           |vol_solution.vtu                   |
|Paraview surface                   |surface.vtu                        |
+-----------------------------------------------------------------------+
+--------------------------------------------------------------------------------------------------------------------+
|  Inner_Iter|    rms[Rho]|   rms[RhoU]|   rms[RhoV]|   rms[RhoE]|          CD|          CL|         CMz|   LinSolRes|
+--------------------------------------------------------------------------------------------------------------------+
|        4525|   -9.350190|   -8.642440|   -9.156528|   -9.163620|    0.008022|   -0.277080|    0.008506|   -0.659985|
|        4550|   -9.356240|   -8.650257|   -9.163751|   -9.172799|    0.008020|   -0.277153|    0.008469|   -0.659481|
|        4575|   -9.361017|   -8.658087|   -9.170547|   -9.178613|    0.008018|   -0.277224|    0.008433|   -0.659314|
|        4600|   -9.366980|   -8.665952|   -9.177767|   -9.187670|    0.008015|   -0.277295|    0.008397|   -0.657537|
+-----------------------------------------------------------------------+
|        File Writing Summary       |              Filename             |
+-----------------------------------------------------------------------+
|SU2 binary restart                 |restart.dat                        |
|Paraview                           |vol_solution.vtu                   |
|Paraview surface                   |surface.vtu                        |
+-----------------------------------------------------------------------+
+--------------------------------------------------------------------------------------------------------------------+
|  Inner_Iter|    rms[Rho]|   rms[RhoU]|   rms[RhoV]|   rms[RhoE]|          CD|          CL|         CMz|   LinSolRes|
+--------------------------------------------------------------------------------------------------------------------+
|        4625|   -9.371806|   -8.673819|   -9.184604|   -9.193653|    0.008013|   -0.277364|    0.008361|   -0.658446|
|        4650|   -9.377658|   -8.681699|   -9.191823|   -9.202528|    0.008011|   -0.277432|    0.008327|   -0.655926|
|        4675|   -9.382535|   -8.689574|   -9.198758|   -9.208691|    0.008009|   -0.277500|    0.008292|   -0.657370|
|        4700|   -9.388330|   -8.697463|   -9.206039|   -9.217514|    0.008007|   -0.277566|    0.008259|   -0.654644|
+-----------------------------------------------------------------------+
|        File Writing Summary       |              Filename             |
+-----------------------------------------------------------------------+
|SU2 binary restart                 |restart.dat                        |
|Paraview                           |vol_solution.vtu                   |
|Paraview surface                   |surface.vtu                        |
+-----------------------------------------------------------------------+
+--------------------------------------------------------------------------------------------------------------------+
|  Inner_Iter|    rms[Rho]|   rms[RhoU]|   rms[RhoV]|   rms[RhoE]|          CD|          CL|         CMz|   LinSolRes|
+--------------------------------------------------------------------------------------------------------------------+
|        4725|   -9.393216|   -8.705350|   -9.213046|   -9.223767|    0.008005|   -0.277631|    0.008226|   -0.656133|
|        4750|   -9.398970|   -8.713258|   -9.220351|   -9.232608|    0.008003|   -0.277695|    0.008193|   -0.653607|
|        4775|   -9.403814|   -8.721167|   -9.227345|   -9.238835|    0.008000|   -0.277758|    0.008161|   -0.654708|
|        4800|   -9.409549|   -8.729093|   -9.234657|   -9.247751|    0.007998|   -0.277820|    0.008129|   -0.652773|
+-----------------------------------------------------------------------+
|        File Writing Summary       |              Filename             |
+-----------------------------------------------------------------------+
|SU2 binary restart                 |restart.dat                        |
|Paraview                           |vol_solution.vtu                   |
|Paraview surface                   |surface.vtu                        |
+-----------------------------------------------------------------------+
+--------------------------------------------------------------------------------------------------------------------+
|  Inner_Iter|    rms[Rho]|   rms[RhoU]|   rms[RhoV]|   rms[RhoE]|          CD|          CL|         CMz|   LinSolRes|
+--------------------------------------------------------------------------------------------------------------------+
|        4825|   -9.414325|   -8.737019|   -9.241633|   -9.253869|    0.007997|   -0.277881|    0.008098|   -0.653103|
|        4850|   -9.420050|   -8.744965|   -9.248960|   -9.262863|    0.007995|   -0.277941|    0.008068|   -0.652110|
|        4875|   -9.424771|   -8.752913|   -9.255927|   -9.268922|    0.007993|   -0.278000|    0.008038|   -0.651438|
|        4900|   -9.430418|   -8.760876|   -9.263267|   -9.277803|    0.007991|   -0.278059|    0.008008|   -0.651647|
+-----------------------------------------------------------------------+
|        File Writing Summary       |              Filename             |
+-----------------------------------------------------------------------+
|SU2 binary restart                 |restart.dat                        |
|Paraview                           |vol_solution.vtu                   |
|Paraview surface                   |surface.vtu                        |
+-----------------------------------------------------------------------+
+--------------------------------------------------------------------------------------------------------------------+
|  Inner_Iter|    rms[Rho]|   rms[RhoU]|   rms[RhoV]|   rms[RhoE]|          CD|          CL|         CMz|   LinSolRes|
+--------------------------------------------------------------------------------------------------------------------+
|        4925|   -9.435209|   -8.768853|   -9.270250|   -9.284151|    0.007989|   -0.278116|    0.007979|   -0.649918|
|        4950|   -9.440665|   -8.776826|   -9.277600|   -9.292562|    0.007987|   -0.278172|    0.007951|   -0.651370|
|        4975|   -9.445661|   -8.784820|   -9.284712|   -9.299670|    0.007986|   -0.278227|    0.007923|   -0.648661|
[...]
|  Inner_Iter|    rms[Rho]|   rms[RhoU]|   rms[RhoV]|   rms[RhoE]|          CD|          CL|         CMz|   LinSolRes|
+--------------------------------------------------------------------------------------------------------------------+
|        7625|   -9.903134|   -9.679826|  -10.122568|  -10.164838|    0.007902|   -0.280883|    0.006599|   -0.649512|
|        7650|   -9.906649|   -9.688676|  -10.130855|  -10.172789|    0.007902|   -0.280891|    0.006595|   -0.651149|
|        7675|   -9.910204|   -9.697493|  -10.139326|  -10.181555|    0.007902|   -0.280899|    0.006592|   -0.651176|
|        7700|   -9.913718|   -9.706359|  -10.147683|  -10.189892|    0.007902|   -0.280906|    0.006588|   -0.653079|
+-----------------------------------------------------------------------+
|        File Writing Summary       |              Filename             |
+-----------------------------------------------------------------------+
|SU2 binary restart                 |restart.dat                        |
|Paraview                           |vol_solution.vtu                   |
|Paraview surface                   |surface.vtu                        |
+-----------------------------------------------------------------------+
+--------------------------------------------------------------------------------------------------------------------+
|  Inner_Iter|    rms[Rho]|   rms[RhoU]|   rms[RhoV]|   rms[RhoE]|          CD|          CL|         CMz|   LinSolRes|
+--------------------------------------------------------------------------------------------------------------------+
|        7725|   -9.917256|   -9.715201|  -10.156149|  -10.198812|    0.007901|   -0.280914|    0.006584|   -0.653014|
|        7750|   -9.920757|   -9.724074|  -10.164518|  -10.207192|    0.007901|   -0.280922|    0.006580|   -0.654196|
|        7775|   -9.924251|   -9.732929|  -10.172939|  -10.215571|    0.007901|   -0.280929|    0.006577|   -0.654977|
|        7800|   -9.927754|   -9.741793|  -10.181424|  -10.224365|    0.007901|   -0.280936|    0.006573|   -0.655989|
+-----------------------------------------------------------------------+
|        File Writing Summary       |              Filename             |
+-----------------------------------------------------------------------+
|SU2 binary restart                 |restart.dat                        |
|Paraview                           |vol_solution.vtu                   |
|Paraview surface                   |surface.vtu                        |
+-----------------------------------------------------------------------+
+--------------------------------------------------------------------------------------------------------------------+
|  Inner_Iter|    rms[Rho]|   rms[RhoU]|   rms[RhoV]|   rms[RhoE]|          CD|          CL|         CMz|   LinSolRes|
+--------------------------------------------------------------------------------------------------------------------+
|        7825|   -9.931224|   -9.750681|  -10.189826|  -10.232671|    0.007900|   -0.280943|    0.006570|   -0.657364|
|        7850|   -9.934724|   -9.759551|  -10.198370|  -10.241803|    0.007900|   -0.280950|    0.006567|   -0.657465|
|        7875|   -9.938165|   -9.768453|  -10.206759|  -10.249809|    0.007900|   -0.280957|    0.006563|   -0.659332|
|        7900|   -9.941640|   -9.777322|  -10.215353|  -10.258730|    0.007900|   -0.280964|    0.006560|   -0.659542|
+-----------------------------------------------------------------------+
|        File Writing Summary       |              Filename             |
+-----------------------------------------------------------------------+
|SU2 binary restart                 |restart.dat                        |
|Paraview                           |vol_solution.vtu                   |
|Paraview surface                   |surface.vtu                        |
+-----------------------------------------------------------------------+
+--------------------------------------------------------------------------------------------------------------------+
|  Inner_Iter|    rms[Rho]|   rms[RhoU]|   rms[RhoV]|   rms[RhoE]|          CD|          CL|         CMz|   LinSolRes|
+--------------------------------------------------------------------------------------------------------------------+
|        7925|   -9.945077|   -9.786241|  -10.223818|  -10.267065|    0.007899|   -0.280970|    0.006557|   -0.661724|
|        7950|   -9.948533|   -9.795132|  -10.232399|  -10.276031|    0.007899|   -0.280977|    0.006554|   -0.661970|
|        7975|   -9.951964|   -9.804057|  -10.240896|  -10.284567|    0.007899|   -0.280983|    0.006551|   -0.663322|
|        8000|   -9.955379|   -9.812984|  -10.249381|  -10.292893|    0.007899|   -0.280989|    0.006548|   -0.664631|
+-----------------------------------------------------------------------+
|        File Writing Summary       |              Filename             |
+-----------------------------------------------------------------------+
|SU2 binary restart                 |restart.dat                        |
|Paraview                           |vol_solution.vtu                   |
|Paraview surface                   |surface.vtu                        |
+-----------------------------------------------------------------------+
+--------------------------------------------------------------------------------------------------------------------+
|  Inner_Iter|    rms[Rho]|   rms[RhoU]|   rms[RhoV]|   rms[RhoE]|          CD|          CL|         CMz|   LinSolRes|
+--------------------------------------------------------------------------------------------------------------------+
|        8025|   -9.958812|   -9.821905|  -10.257970|  -10.301849|    0.007899|   -0.280995|    0.006545|   -0.665406|
|        8050|   -9.962204|   -9.830863|  -10.266419|  -10.310042|    0.007899|   -0.281001|    0.006542|   -0.667589|
|        8075|   -9.965631|   -9.839790|  -10.275057|  -10.319297|    0.007898|   -0.281007|    0.006540|   -0.667693|
|        8100|   -9.969010|   -9.848759|  -10.283531|  -10.327498|    0.007898|   -0.281013|    0.006537|   -0.669729|
+-----------------------------------------------------------------------+
|        File Writing Summary       |              Filename             |
+-----------------------------------------------------------------------+
|SU2 binary restart                 |restart.dat                        |
|Paraview                           |vol_solution.vtu                   |
|Paraview surface                   |surface.vtu                        |
+-----------------------------------------------------------------------+
+--------------------------------------------------------------------------------------------------------------------+
|  Inner_Iter|    rms[Rho]|   rms[RhoU]|   rms[RhoV]|   rms[RhoE]|          CD|          CL|         CMz|   LinSolRes|
+--------------------------------------------------------------------------------------------------------------------+
|        8125|   -9.972400|   -9.857705|  -10.292118|  -10.336114|    0.007898|   -0.281018|    0.006534|   -0.670655|
|        8150|   -9.975789|   -9.866666|  -10.300730|  -10.344974|    0.007898|   -0.281024|    0.006531|   -0.672046|
|        8175|   -9.979148|   -9.875653|  -10.309239|  -10.353247|    0.007898|   -0.281029|    0.006529|   -0.674055|
|        8200|   -9.982538|   -9.884621|  -10.317905|  -10.362527|    0.007897|   -0.281035|    0.006526|   -0.674405|
+-----------------------------------------------------------------------+
|        File Writing Summary       |              Filename             |
+-----------------------------------------------------------------------+
|SU2 binary restart                 |restart.dat                        |
|Paraview                           |vol_solution.vtu                   |
|Paraview surface                   |surface.vtu                        |
+-----------------------------------------------------------------------+
+--------------------------------------------------------------------------------------------------------------------+
|  Inner_Iter|    rms[Rho]|   rms[RhoU]|   rms[RhoV]|   rms[RhoE]|          CD|          CL|         CMz|   LinSolRes|
+--------------------------------------------------------------------------------------------------------------------+
|        8225|   -9.985880|   -9.893630|  -10.326385|  -10.370665|    0.007897|   -0.281040|    0.006524|   -0.676699|
|        8250|   -9.989237|   -9.902610|  -10.334994|  -10.379356|    0.007897|   -0.281045|    0.006521|   -0.677651|
|        8275|   -9.992591|   -9.911609|  -10.343617|  -10.388207|    0.007897|   -0.281050|    0.006519|   -0.679232|
|        8300|   -9.995918|   -9.920627|  -10.352152|  -10.396477|    0.007897|   -0.281055|    0.006517|   -0.681423|
+-----------------------------------------------------------------------+
|        File Writing Summary       |              Filename             |
+-----------------------------------------------------------------------+
|SU2 binary restart                 |restart.dat                        |
|Paraview                           |vol_solution.vtu                   |
|Paraview surface                   |surface.vtu                        |
+-----------------------------------------------------------------------+
+--------------------------------------------------------------------------------------------------------------------+
|  Inner_Iter|    rms[Rho]|   rms[RhoU]|   rms[RhoV]|   rms[RhoE]|          CD|          CL|         CMz|   LinSolRes|
+--------------------------------------------------------------------------------------------------------------------+
|        8325|   -9.999273|   -9.929622|  -10.360864|  -10.405775|    0.007897|   -0.281060|    0.006515|   -0.681934|
|        8350|  -10.002589|   -9.938657|  -10.369419|  -10.414018|    0.007896|   -0.281064|    0.006512|   -0.684321|
|        8375|  -10.005910|   -9.947665|  -10.378082|  -10.422625|    0.007896|   -0.281069|    0.006510|   -0.685707|
|        8400|  -10.009236|   -9.956679|  -10.386812|  -10.431627|    0.007896|   -0.281073|    0.006508|   -0.687084|
+-----------------------------------------------------------------------+
|        File Writing Summary       |              Filename             |
+-----------------------------------------------------------------------+
|SU2 binary restart                 |restart.dat                        |
|Paraview                           |vol_solution.vtu                   |
|Paraview surface                   |surface.vtu                        |
+-----------------------------------------------------------------------+
+--------------------------------------------------------------------------------------------------------------------+
|  Inner_Iter|    rms[Rho]|   rms[RhoU]|   rms[RhoV]|   rms[RhoE]|          CD|          CL|         CMz|   LinSolRes|
+--------------------------------------------------------------------------------------------------------------------+
|        8425|  -10.012533|   -9.965731|  -10.395411|  -10.439869|    0.007896|   -0.281078|    0.006506|   -0.689786|
|        8450|  -10.015851|   -9.974753|  -10.404170|  -10.449061|    0.007896|   -0.281082|    0.006504|   -0.690556|
|        8475|  -10.019147|   -9.983809|  -10.412824|  -10.457653|    0.007896|   -0.281086|    0.006502|   -0.692652|
|        8500|  -10.022431|   -9.992872|  -10.421447|  -10.465980|    0.007896|   -0.281091|    0.006500|   -0.694886|
+-----------------------------------------------------------------------+
|        File Writing Summary       |              Filename             |
+-----------------------------------------------------------------------+
|SU2 binary restart                 |restart.dat                        |
|Paraview                           |vol_solution.vtu                   |
|Paraview surface                   |surface.vtu                        |
+-----------------------------------------------------------------------+
+--------------------------------------------------------------------------------------------------------------------+
|  Inner_Iter|    rms[Rho]|   rms[RhoU]|   rms[RhoV]|   rms[RhoE]|          CD|          CL|         CMz|   LinSolRes|
+--------------------------------------------------------------------------------------------------------------------+
|        8525|  -10.025730|  -10.001916|  -10.430208|  -10.475044|    0.007896|   -0.281095|    0.006498|   -0.695909|
|        8550|  -10.029006|  -10.011009|  -10.438851|  -10.483519|    0.007895|   -0.281099|    0.006496|   -0.698688|
|        8575|  -10.031905|  -10.020524|  -10.446635|  -10.462713|    0.007895|   -0.281103|    0.006494|   -0.762545|
|        8600|  -10.035860|  -10.030166|  -10.457494|  -10.502205|    0.007895|   -0.281107|    0.006492|   -0.702633|
+-----------------------------------------------------------------------+
|        File Writing Summary       |              Filename             |
+-----------------------------------------------------------------------+
|SU2 binary restart                 |restart.dat                        |
|Paraview                           |vol_solution.vtu                   |
|Paraview surface                   |surface.vtu                        |
+-----------------------------------------------------------------------+
+--------------------------------------------------------------------------------------------------------------------+
|  Inner_Iter|    rms[Rho]|   rms[RhoU]|   rms[RhoV]|   rms[RhoE]|          CD|          CL|         CMz|   LinSolRes|
+--------------------------------------------------------------------------------------------------------------------+
|        8625|  -10.039010|  -10.039461|  -10.466380|  -10.508918|    0.007895|   -0.281111|    0.006490|   -0.705036|
|        8650|  -10.042464|  -10.048639|  -10.474240|  -10.519340|    0.007895|   -0.281114|    0.006489|   -0.706096|
|        8675|  -10.046449|  -10.058099|  -10.482970|  -10.553122|    0.007895|   -0.281118|    0.006487|   -0.589888|
|        8700|  -10.049748|  -10.067143|  -10.492824|  -10.559665|    0.007895|   -0.281122|    0.006485|   -0.706346|
+-----------------------------------------------------------------------+
|        File Writing Summary       |              Filename             |
+-----------------------------------------------------------------------+
|SU2 binary restart                 |restart.dat                        |
|Paraview                           |vol_solution.vtu                   |
|Paraview surface                   |surface.vtu                        |
+-----------------------------------------------------------------------+
+--------------------------------------------------------------------------------------------------------------------+
|  Inner_Iter|    rms[Rho]|   rms[RhoU]|   rms[RhoV]|   rms[RhoE]|          CD|          CL|         CMz|   LinSolRes|
+--------------------------------------------------------------------------------------------------------------------+
|        8725|  -10.052359|  -10.075616|  -10.501497|  -10.543138|    0.007895|   -0.281125|    0.006483|   -0.713093|
|        8750|  -10.055804|  -10.085646|  -10.509505|  -10.555870|    0.007894|   -0.281129|    0.006482|   -0.715403|
|        8775|  -10.057643|  -10.094797|  -10.509182|  -10.505298|    0.007894|   -0.281132|    0.006480|   -0.667380|
|        8800|  -10.061077|  -10.103566|  -10.519027|  -10.508328|    0.007894|   -0.281136|    0.006479|   -0.673507|
+-----------------------------------------------------------------------+
|        File Writing Summary       |              Filename             |
+-----------------------------------------------------------------------+
|SU2 binary restart                 |restart.dat                        |
|Paraview                           |vol_solution.vtu                   |
|Paraview surface                   |surface.vtu                        |
+-----------------------------------------------------------------------+
+--------------------------------------------------------------------------------------------------------------------+
|  Inner_Iter|    rms[Rho]|   rms[RhoU]|   rms[RhoV]|   rms[RhoE]|          CD|          CL|         CMz|   LinSolRes|
+--------------------------------------------------------------------------------------------------------------------+
|        8825|  -10.065589|  -10.112962|  -10.537985|  -10.579165|    0.007894|   -0.281139|    0.006477|   -0.721976|
|        8850|  -10.069038|  -10.122831|  -10.545922|  -10.592601|    0.007894|   -0.281142|    0.006476|   -0.724493|
|        8875|  -10.071737|  -10.132771|  -10.552334|  -10.567675|    0.007894|   -0.281145|    0.006474|   -0.792741|
|        8900|  -10.076125|  -10.141886|  -10.564418|  -10.631887|    0.007894|   -0.281148|    0.006473|   -0.609834|
+-----------------------------------------------------------------------+
|        File Writing Summary       |              Filename             |
+-----------------------------------------------------------------------+
|SU2 binary restart                 |restart.dat                        |
|Paraview                           |vol_solution.vtu                   |
|Paraview surface                   |surface.vtu                        |
+-----------------------------------------------------------------------+
+--------------------------------------------------------------------------------------------------------------------+
|  Inner_Iter|    rms[Rho]|   rms[RhoU]|   rms[RhoV]|   rms[RhoE]|          CD|          CL|         CMz|   LinSolRes|
+--------------------------------------------------------------------------------------------------------------------+
|        8925|  -10.078815|  -10.150539|  -10.573946|  -10.615808|    0.007894|   -0.281151|    0.006471|   -0.732203|
|        8950|  -10.082154|  -10.160114|  -10.582224|  -10.627556|    0.007894|   -0.281154|    0.006470|   -0.734295|
|        8975|  -10.085284|  -10.170210|  -10.590048|  -10.634463|    0.007894|   -0.281157|    0.006469|   -0.620895|
|        8987|  -10.087091|  -10.174965|  -10.592817|  -10.625203|    0.007893|   -0.281159|    0.006468|   -0.657505|

----------------------------- Solver Exit -------------------------------
All convergence criteria satisfied.
+-----------------------------------------------------------------------+
|      Convergence Field     |     Value    |   Criterion  |  Converged |
+-----------------------------------------------------------------------+
|                  Cauchy[CL]|   4.99868e-07|       < 5e-07|         Yes|
+-----------------------------------------------------------------------+
-------------------------------------------------------------------------
+-----------------------------------------------------------------------+
|        File Writing Summary       |              Filename             |
+-----------------------------------------------------------------------+
|SU2 binary restart                 |restart.dat                        |
|Paraview                           |vol_solution.vtu                   |
|Paraview surface                   |surface.vtu                        |
+-----------------------------------------------------------------------+

------------------------- Solver Postprocessing -------------------------
Deleted CNumerics container.
Deleted CIntegration container.
Deleted CSolver container.
Deleted CIteration container.
Deleted CInterface container.
Deleted CGeometry container.
Deleted CFreeFormDefBox class.
Deleted CSurfaceMovement class.
Deleted CVolumetricMovement class.
Deleted CConfig container.
Deleted nInst container.
Deleted COutput class.
-------------------------------------------------------------------------

------------------------- Exit Success (SU2_CFD) ------------------------

