  
       XFOIL         Version 6.99
  
 Calculated polar for: Airfoil 31                                      
  
 1 1 Reynolds number fixed          Mach number fixed         
  
 xtrf =   0.300 (top)        0.300 (bottom)  
 Mach =   0.250     Re =    12.708 e 6     Ncrit =   9.000  9.000
  
   alpha    CL        CD       CDp       CM     Top_Xtr  Bot_Xtr  Top_Itr  Bot_Itr
  ------ -------- --------- --------- -------- -------- -------- -------- --------
   0.000   0.3382   0.00556   0.00032  -0.0899   0.3000   0.2954  49.4016 110.3164
   1.667   0.5357   0.00657   0.00031  -0.0917   0.0953   0.3000  63.4932 110.6225
   3.333   0.7335   0.00740  -0.00015  -0.0930   0.0280   0.3000  69.3374 110.6225
   5.000   0.9304   0.00829  -0.00155  -0.0934   0.0118   0.3000  72.3855 110.6225
