
 ===================================================
  XFOIL Version 6.99
  Copyright (C) 2000   Mark Drela, Harold Youngren

  This software comes with ABSOLUTELY NO WARRANTY,
    subject to the GNU General Public License.

  Caveat computor
 ===================================================

 File  xfoil.def  not found

 File OPEN error.  Nonexistent file:  -n  
 *** LOAD NOT COMPLETED ***

   QUIT    Exit program

  .OPER    Direct operating point(s)
  .MDES    Complex mapping design routine
  .QDES    Surface speed design routine
  .GDES    Geometry design routine

   SAVE f  Write airfoil to labeled coordinate file
   PSAV f  Write airfoil to plain coordinate file
   ISAV f  Write airfoil to ISES coordinate file
   MSAV f  Write airfoil to MSES coordinate file
   REVE    Reverse written-airfoil node ordering
   DELI i  Change written-airfoil file delimiters

   LOAD f  Read buffer airfoil from coordinate file
   NACA i  Set NACA 4,5-digit airfoil and buffer airfoil
   INTE    Set buffer airfoil by interpolating two airfoils
   NORM    Buffer airfoil normalization toggle
   HALF    Halve the number of points in buffer airfoil
   XYCM rr Change CM reference location, currently  0.25000 0.00000

   BEND    Display structural properties of current airfoil

   PCOP    Set current-airfoil panel nodes directly from buffer airfoil points
   PANE    Set current-airfoil panel nodes ( 160 ) based on curvature
  .PPAR    Show/change paneling

  .PLOP    Plotting options

   WDEF f  Write  current-settings file
   RDEF f  Reread current-settings file
   NAME s  Specify new airfoil name
   NINC    Increment name version number

   Z       Zoom    | (available in all menus)
   U       Unzoom  | 

 XFOIL   c>  
 XFOIL   c>  
 Labeled airfoil file.  Name:  Airfoil 31                                      

 Number of input coordinate points: 121
 Counterclockwise ordering
 Max thickness =     0.108497  at x =   0.448
 Max camber    =     0.014292  at x =   0.815

  LE  x,y  =  -0.00000  -0.00000  |   Chord =   1.00000
  TE  x,y  =   1.00000   0.00000  |

 Current airfoil nodes set from buffer airfoil nodes ( 121 )

 XFOIL   c>  
    Present paneling parameters...
  N  i   Number of panel nodes       160
  P  r   Panel bunching parameter    1.000
  T  r   TE/LE panel density ratio   0.150
  R  r   Refined area/LE  panel density ratio   0.200
  XT rr  Top    side refined area x/c limits    1.000 1.000
  XB rr  Bottom side refined area x/c limits    1.000 1.000
  Z oom
  U nzoom
  H ardcopy

Change what ? (<cr> if nothing else)   c>  
Change what ? (<cr> if nothing else)   c>  
 Blunt trailing edge.  Gap =  0.00400

 Maximum panel corner angle = 11.230   at  i,x,y  =  80   0.0000   0.0002

    Present paneling parameters...
  N  i   Number of panel nodes       160
  P  r   Panel bunching parameter    1.000
  T  r   TE/LE panel density ratio   0.150
  R  r   Refined area/LE  panel density ratio   0.200
  XT rr  Top    side refined area x/c limits    1.000 1.000
  XB rr  Bottom side refined area x/c limits    1.000 1.000
  Z oom
  U nzoom
  H ardcopy

Change what ? (<cr> if nothing else)   c>  
Change what ? (<cr> if nothing else)   c>  
 Blunt trailing edge.  Gap =  0.00400

 Maximum panel corner angle = 11.230   at  i,x,y  =  80   0.0000   0.0002

    Present paneling parameters...
  N  i   Number of panel nodes       160
  P  r   Panel bunching parameter    1.000
  T  r   TE/LE panel density ratio   0.150
  R  r   Refined area/LE  panel density ratio   0.200
  XT rr  Top    side refined area x/c limits    1.000 1.000
  XB rr  Bottom side refined area x/c limits    1.000 1.000
  Z oom
  U nzoom
  H ardcopy

Change what ? (<cr> if nothing else)   c>  
Change what ? (<cr> if nothing else)   c>  
 Blunt trailing edge.  Gap =  0.00400

 Maximum panel corner angle = 11.230   at  i,x,y  =  80   0.0000   0.0002

    Present paneling parameters...
  N  i   Number of panel nodes       160
  P  r   Panel bunching parameter    1.000
  T  r   TE/LE panel density ratio   0.150
  R  r   Refined area/LE  panel density ratio   0.200
  XT rr  Top    side refined area x/c limits    1.000 1.000
  XB rr  Bottom side refined area x/c limits    1.000 1.000
  Z oom
  U nzoom
  H ardcopy

Change what ? (<cr> if nothing else)   c>  
Change what ? (<cr> if nothing else)   c>  
 Blunt trailing edge.  Gap =  0.00400

 Maximum panel corner angle = 11.230   at  i,x,y  =  80   0.0000   0.0002

    Present paneling parameters...
  N  i   Number of panel nodes       160
  P  r   Panel bunching parameter    1.000
  T  r   TE/LE panel density ratio   0.150
  R  r   Refined area/LE  panel density ratio   0.200
  XT rr  Top    side refined area x/c limits    1.000 1.000
  XB rr  Bottom side refined area x/c limits    1.000 1.000
  Z oom
  U nzoom
  H ardcopy

Change what ? (<cr> if nothing else)   c>  
Change what ? (<cr> if nothing else)   c>  
 Blunt trailing edge.  Gap =  0.00400

 Maximum panel corner angle = 11.230   at  i,x,y  =  80   0.0000   0.0002

    Present paneling parameters...
  N  i   Number of panel nodes       160
  P  r   Panel bunching parameter    1.000
  T  r   TE/LE panel density ratio   0.150
  R  r   Refined area/LE  panel density ratio   0.200
  XT rr  Top    side refined area x/c limits    1.000 1.000
  XB rr  Bottom side refined area x/c limits    1.000 1.000
  Z oom
  U nzoom
  H ardcopy

Change what ? (<cr> if nothing else)   c>  
Change what ? (<cr> if nothing else)   c>  
 Blunt trailing edge.  Gap =  0.00400

 Maximum panel corner angle = 11.230   at  i,x,y  =  80   0.0000   0.0002

    Present paneling parameters...
  N  i   Number of panel nodes       160
  P  r   Panel bunching parameter    1.000
  T  r   TE/LE panel density ratio   0.150
  R  r   Refined area/LE  panel density ratio   0.200
  XT rr  Top    side refined area x/c limits    1.000 1.000
  XB rr  Bottom side refined area x/c limits    1.000 1.000
  Z oom
  U nzoom
  H ardcopy

Change what ? (<cr> if nothing else)   c>  
 XFOIL   c>  
.OPERi   c>  
 M  =    0.0000
 Re =  0.1271E+08

.OPERv   c>  
 Xtr/c     =  1.0000    top    side
 Xtr/c     =  1.0000    bottom side
 NcritT    =    9.00   ( 0.070 % turb. level )
 NcritB    =    9.00   ( 0.070 % turb. level )
 Vacc      =  0.0100
 WakeL/c   =   1.000

 Klag  =  5.6000     Uxwt  =    1.00       Kdl =  0.9000
 A     =  6.7000     B     =  0.7500       KCt = 0.01485
 CtiniK=  1.8000     CtiniX=  3.3000

..VPAR   c>  
..VPAR   c>  
Enter top    side Xtrip/c   r>  
Enter bottom side Xtrip/c   r>  
..VPAR   c>  
.OPERv   c>  
 Currently...

 M  =    0.0000

Enter Mach number   r>  
 Sonic Cp =    -10.25      Sonic Q/Qinf =     3.674


.OPERv   c>  
.OPERv   c>  
 Polar  1 newly created for accumulation
 Airfoil archived with polar: Airfoil 31                                      

Enter  polar save filename  OR  <return> for no file   s>  
 New polar save file available

Enter  polar dump filename  OR  <return> for no file   s>  
 Polar dump file will NOT be written

 Polar accumulation enabled

.OPERva   c>   Calculating unit vorticity distributions ...
 Calculating wake trajectory ...
 Calculating source influence matrix ...

 Solving BL system ...

 Initializing BL ...
    side            1  ...
 MRCHUE: Convergence failed at  33  side 1    Res =  0.3091E-01
    side            2  ...

 MRCHDU: Convergence failed at  33  side 1    Res =  0.4465E-02
 Side 1  free  transition at x/c =  0.2896   33
 Side 2 forced transition at x/c =  0.3000   31

   1   rms: 0.6365E-01   max: -.1024E+01   C at   33  1   RLX: 0.488
       a =  0.000      CL =  0.3638
      Cm = -0.0958     CD =  0.00542   =>   CDf =  0.00449    CDp =  0.00094

 Side 1  free  transition at x/c =  0.2944   34
 Side 2 forced transition at x/c =  0.3000   31

   2   rms: 0.4150E-01   max: 0.3577E+00   D at   34  1
       a =  0.000      CL =  0.3426
      Cm = -0.0909     CD =  0.00548   =>   CDf =  0.00449    CDp =  0.00099

 Side 1 forced transition at x/c =  0.3000   34
 Side 2 forced transition at x/c =  0.3000   31

   3   rms: 0.4232E-02   max: 0.2515E-01   D at   81  1
       a =  0.000      CL =  0.3384
      Cm = -0.0900     CD =  0.00555   =>   CDf =  0.00449    CDp =  0.00106

 Side 1 forced transition at x/c =  0.3000   34
 Side 2  free  transition at x/c =  0.2930   31

   4   rms: 0.3905E-02   max: 0.5399E-01   D at   31  2
       a =  0.000      CL =  0.3382
      Cm = -0.0899     CD =  0.00556   =>   CDf =  0.00450    CDp =  0.00106

 Side 1 forced transition at x/c =  0.3000   34
 Side 2  free  transition at x/c =  0.2956   31

   5   rms: 0.5049E-03   max: 0.7372E-02   C at   31  2
       a =  0.000      CL =  0.3382
      Cm = -0.0899     CD =  0.00556   =>   CDf =  0.00450    CDp =  0.00106

 Side 1 forced transition at x/c =  0.3000   34
 Side 2  free  transition at x/c =  0.2954   31

   6   rms: 0.1729E-05   max: 0.2334E-04   C at   31  2
       a =  0.000      CL =  0.3382
      Cm = -0.0899     CD =  0.00556   =>   CDf =  0.00450    CDp =  0.00106
      9.000    2.6392   0.005560   0.000000   0.000000   0.000000    0.3000     #

 Point added to stored polar  1
 Point written to save file  polar.dat                                       
 Dump file unspecified or not available
 Calculating wake trajectory ...
 Calculating source influence matrix ...

 Solving BL system ...

 Side 1 forced transition at x/c =  0.3000   34
 Side 2  free  transition at x/c =  0.2954   31

   1   rms: 0.3480E+01   max: -.4934E+02   C at   31  2   RLX: 0.010
       a =  1.667      CL =  0.3407
      Cm = -0.0901     CD =  0.00551   =>   CDf =  0.00449    CDp =  0.00102

 Side 1 forced transition at x/c =  0.3000   34
 Side 2 forced transition at x/c =  0.3000   31

   2   rms: 0.2907E+00   max: -.7536E+00   n at   30  2   RLX: 0.664
       a =  1.667      CL =  0.4746
      Cm = -0.0919     CD =  0.00559   =>   CDf =  0.00447    CDp =  0.00112

 Side 1  free  transition at x/c =  0.1417   24
 Side 2 forced transition at x/c =  0.3000   30

   3   rms: 0.2126E+00   max: 0.4534E+01   C at   24  1   RLX: 0.331
       a =  1.667      CL =  0.4944
      Cm = -0.0918     CD =  0.00638   =>   CDf =  0.00497    CDp =  0.00141

 Side 1  free  transition at x/c =  0.1276   23
 Side 2 forced transition at x/c =  0.3000   30

   4   rms: 0.1395E+00   max: 0.3035E+01   C at   23  1   RLX: 0.494
       a =  1.667      CL =  0.5149
      Cm = -0.0918     CD =  0.00646   =>   CDf =  0.00501    CDp =  0.00144

 Side 1  free  transition at x/c =  0.1085   22
 Side 2 forced transition at x/c =  0.3000   30

   5   rms: 0.6661E-01   max: -.6737E+00   D at   22  1   RLX: 0.742
       a =  1.667      CL =  0.5300
      Cm = -0.0917     CD =  0.00661   =>   CDf =  0.00505    CDp =  0.00155

 Side 1  free  transition at x/c =  0.0989   22
 Side 2 forced transition at x/c =  0.3000   29

   6   rms: 0.1679E-01   max: 0.3068E+00   C at   22  1
       a =  1.667      CL =  0.5357
      Cm = -0.0917     CD =  0.00657   =>   CDf =  0.00511    CDp =  0.00146

 Side 1  free  transition at x/c =  0.0954   22
 Side 2 forced transition at x/c =  0.3000   29

   7   rms: 0.2110E-03   max: -.2112E-02   D at   22  1
       a =  1.667      CL =  0.5357
      Cm = -0.0917     CD =  0.00657   =>   CDf =  0.00512    CDp =  0.00145

 Side 1  free  transition at x/c =  0.0953   22
 Side 2 forced transition at x/c =  0.3000   29

   8   rms: 0.5929E-06   max: 0.4087E-05   C at   25  1
       a =  1.667      CL =  0.5357
      Cm = -0.0917     CD =  0.00657   =>   CDf =  0.00513    CDp =  0.00145
      9.000    2.8191   0.006574   0.000000   0.000000   0.000000    0.0953     #

 Point added to stored polar  1
 Point written to save file  polar.dat                                       
 Dump file unspecified or not available
 Calculating wake trajectory ...
 Calculating source influence matrix ...

 Solving BL system ...

 Side 1  free  transition at x/c =  0.0953   22
 Side 2 forced transition at x/c =  0.3000   29

   1   rms: 0.4911E+00   max: -.4613E+01   D at   22  1   RLX: 0.108
       a =  3.333      CL =  0.5567
      Cm = -0.0918     CD =  0.00670   =>   CDf =  0.00512    CDp =  0.00158

 Side 1  free  transition at x/c =  0.0846   21
 Side 2 forced transition at x/c =  0.3000   29

   2   rms: 0.4931E+00   max: 0.7700E+01   C at   21  1   RLX: 0.116
       a =  3.333      CL =  0.5768
      Cm = -0.0920     CD =  0.00677   =>   CDf =  0.00516    CDp =  0.00161

 Side 1  free  transition at x/c =  0.0727   20
 Side 2 forced transition at x/c =  0.3000   29

   3   rms: 0.4739E+00   max: 0.9204E+01   C at   20  1   RLX: 0.142
       a =  3.333      CL =  0.5989
      Cm = -0.0921     CD =  0.00686   =>   CDf =  0.00520    CDp =  0.00166

 Side 1  free  transition at x/c =  0.0617   19
 Side 2 forced transition at x/c =  0.3000   29

   4   rms: 0.2741E+00   max: 0.5179E+01   C at   19  1   RLX: 0.290
       a =  3.333      CL =  0.6383
      Cm = -0.0925     CD =  0.00695   =>   CDf =  0.00520    CDp =  0.00175

 Side 1  free  transition at x/c =  0.0477   19
 Side 2 forced transition at x/c =  0.3000   28

   5   rms: 0.2059E+00   max: 0.2631E+01   C at   19  1   RLX: 0.298
       a =  3.333      CL =  0.6665
      Cm = -0.0926     CD =  0.00715   =>   CDf =  0.00530    CDp =  0.00185

 Side 1  free  transition at x/c =  0.0393   18
 Side 2 forced transition at x/c =  0.3000   28

   6   rms: 0.1081E+00   max: 0.1322E+01   C at   18  1
       a =  3.333      CL =  0.7342
      Cm = -0.0931     CD =  0.00732   =>   CDf =  0.00528    CDp =  0.00205

 Side 1  free  transition at x/c =  0.0282   18
 Side 2 forced transition at x/c =  0.3000   27

   7   rms: 0.3569E-02   max: -.5242E-01   D at   18  1
       a =  3.333      CL =  0.7335
      Cm = -0.0930     CD =  0.00740   =>   CDf =  0.00539    CDp =  0.00201

 Side 1  free  transition at x/c =  0.0279   18
 Side 2 forced transition at x/c =  0.3000   27

   8   rms: 0.2200E-03   max: -.2007E-02   D at    4  1
       a =  3.333      CL =  0.7335
      Cm = -0.0930     CD =  0.00740   =>   CDf =  0.00539    CDp =  0.00201

 Side 1  free  transition at x/c =  0.0280   18
 Side 2 forced transition at x/c =  0.3000   27

   9   rms: 0.2566E-06   max: -.1787E-05   C at   22  1
       a =  3.333      CL =  0.7335
      Cm = -0.0930     CD =  0.00740   =>   CDf =  0.00539    CDp =  0.00201
      9.000    3.2520   0.007400   0.000000   0.000000   0.000000    0.0280     #

 Point added to stored polar  1
 Point written to save file  polar.dat                                       
 Dump file unspecified or not available
 Calculating wake trajectory ...
 Calculating source influence matrix ...

 Solving BL system ...

 Side 1  free  transition at x/c =  0.0280   18
 Side 2 forced transition at x/c =  0.3000   27

   1   rms: 0.3921E+00   max: -.3700E+01   D at   18  1   RLX: 0.135
       a =  5.000      CL =  0.7596
      Cm = -0.0930     CD =  0.00755   =>   CDf =  0.00539    CDp =  0.00216

 Side 1  free  transition at x/c =  0.0231   17
 Side 2 forced transition at x/c =  0.3000   27

   2   rms: 0.2393E+00   max: 0.1053E+00   D at   83  2   RLX: 0.753
       a =  5.000      CL =  0.8897
      Cm = -0.0936     CD =  0.00793   =>   CDf =  0.00532    CDp =  0.00261

 Side 1  free  transition at x/c =  0.0144   17
 Side 2 forced transition at x/c =  0.3000   26

   3   rms: 0.6975E-01   max: -.4768E+00   D at   17  1
       a =  5.000      CL =  0.9301
      Cm = -0.0933     CD =  0.00833   =>   CDf =  0.00548    CDp =  0.00285

 Side 1  free  transition at x/c =  0.0120   16
 Side 2 forced transition at x/c =  0.3000   26

   4   rms: 0.6696E-02   max: -.1319E+00   D at   16  1
       a =  5.000      CL =  0.9304
      Cm = -0.0934     CD =  0.00828   =>   CDf =  0.00548    CDp =  0.00280

 Side 1  free  transition at x/c =  0.0118   16
 Side 2 forced transition at x/c =  0.3000   26

   5   rms: 0.2418E-03   max: -.4219E-02   D at   16  1
       a =  5.000      CL =  0.9304
      Cm = -0.0934     CD =  0.00829   =>   CDf =  0.00549    CDp =  0.00280

 Side 1  free  transition at x/c =  0.0118   16
 Side 2 forced transition at x/c =  0.3000   26

   6   rms: 0.1072E-05   max: -.1768E-04   D at   16  1
       a =  5.000      CL =  0.9304
      Cm = -0.0934     CD =  0.00829   =>   CDf =  0.00549    CDp =  0.00280
      9.000    3.9243   0.008286   0.000000   0.000000   0.000000    0.0118     #

 Point added to stored polar  1
 Point written to save file  polar.dat                                       
At line 135 of file ../src/userio.f (unit = 5, file = 'stdin')
Fortran runtime error: End of file

Error termination. Backtrace:
#0  0x7b7b70c23960 in ???
#1  0x7b7b70c244d9 in ???
#2  0x7b7b70c2510f in ???
#3  0x7b7b70e7817b in ???
#4  0x7b7b70e78752 in ???
#5  0x7b7b70e74f1b in ???
#6  0x7b7b70e79e3c in ???
#7  0x7b7b70e7ae55 in ???
#8  0x57c657b599f1 in ???
#9  0x57c657abf13a in ???
#10  0x57c657ab5758 in ???
#11  0x7b7b70829d8f in __libc_start_call_main
	at ../sysdeps/nptl/libc_start_call_main.h:58
#12  0x7b7b70829e3f in __libc_start_main_impl
	at ../csu/libc-start.c:392
#13  0x57c657ab5784 in ???
#14  0xffffffffffffffff in ???
 Dump file unspecified or not available

.OPERva   c>  
 Enter filename:  main_airfoil_merged_31.bl                                                       

.OPERva   c>  
 XFOIL   c>  