WARNING: The current SST-1994m model is inconsistent with literature. We recommend using the SST-2003m model.
In SU2 v8 the 2003m model will become default, and the inconsistency will be fixed.

-------------------------------------------------------------------------
|    ___ _   _ ___                                                      |
|   / __| | | |_  )   Release 7.4.0 "Blackbird"                         |
|   \__ \ |_| |/ /                                                      |
|   |___/\___//___|   Suite (Computational Fluid Dynamics Code)         |
|                                                                       |
-------------------------------------------------------------------------
| SU2 Project Website: https://su2code.github.io                        |
|                                                                       |
| The SU2 Project is maintained by the SU2 Foundation                   |
| (http://su2foundation.org)                                            |
-------------------------------------------------------------------------
| Copyright 2012-2022, SU2 Contributors                                 |
|                                                                       |
| SU2 is free software; you can redistribute it and/or                  |
| modify it under the terms of the GNU Lesser General Public            |
| License as published by the Free Software Foundation; either          |
| version 2.1 of the License, or (at your option) any later version.    |
|                                                                       |
| SU2 is distributed in the hope that it will be useful,                |
| but WITHOUT ANY WARRANTY; without even the implied warranty of        |
| MERCHANTABILITY or FITNESS FOR A PARTICULAR PURPOSE. See the GNU      |
| Lesser General Public License for more details.                       |
|                                                                       |
| You should have received a copy of the GNU Lesser General Public      |
| License along with SU2. If not, see <http://www.gnu.org/licenses/>.   |
-------------------------------------------------------------------------
WARNING: The current SST-1994m model is inconsistent with literature. We recommend using the SST-2003m model.
In SU2 v8 the 2003m model will become default, and the inconsistency will be fixed.

Parsing config file for zone 0
WARNING: The current SST-1994m model is inconsistent with literature. We recommend using the SST-2003m model.
In SU2 v8 the 2003m model will become default, and the inconsistency will be fixed.

----------------- Physical Case Definition ( Zone 0 ) -------------------
Compressible RANS equations.
Turbulence model: Menter's k-omega SST-1994m with no production modification.
Hybrid RANS/LES: No Hybrid RANS/LES
Mach number: 0.25.
Angle of attack (AoA): 14 deg, and angle of sideslip (AoS): 0 deg.
Reynolds number: 1.52602e+07. Reference length 2.62.
Reading and writing binary SU2 native restart files.
Read flow solution from: solution_flow.
Non-Dimensional simulation (V=Mach, Rho=1.0, T=1.0 at the farfield).
The reference area is 2.62 m^2.
The semi-span will be computed using the max y(3D) value.
The reference length is 2.62 m.
Reference origin for moment evaluation is (0, 0, 0).
Surface(s) where the force coefficients are evaluated: wall.

Surface(s) plotted in the output file: wall.
Input mesh file name: su2meshEx.su2

--------------- Space Numerical Integration ( Zone 0 ) ------------------
Roe (with entropy fix = 1e-05) solver for the flow inviscid terms.
Standard Roe without low-dissipation function.
Second order integration in space, with slope limiter.
Van Albada slope-limiting method implemented by edges.
Scalar upwind solver for the turbulence model.
First order integration in space.
Average of gradients with correction (viscous flow terms).
Average of gradients with correction (viscous turbulence terms).
Gradient for upwind reconstruction: Green-Gauss.
Gradient for viscous and source terms: Green-Gauss.

--------------- Time Numerical Integration  ( Zone 0 ) ------------------
Local time stepping (steady state simulation).
Euler implicit method for the flow equations.
FGMRES is used for solving the linear system.
Using a ILU(0) preconditioning.
Convergence criteria of the linear solver: 0.2.
Max number of linear iterations: 4.
CFL adaptation. Factor down: 0.1, factor up: 1.2,
                lower limit: 25, upper limit: 1000,
                acceptable linear residual: 0.001.
Courant-Friedrichs-Lewy number:       25
Euler implicit time integration for the turbulence model.

------------------ Convergence Criteria  ( Zone 0 ) ---------------------
Maximum number of solver subiterations: 25000.
Begin convergence monitoring at iteration 10.
Residual minimum value: 1e-11.5.
Cauchy series min. value: 5e-07.
Number of Cauchy elements: 500.
Begin windowed time average at iteration 0.

-------------------- Output Information ( Zone 0 ) ----------------------
File writing frequency: 
+------------------------------------+
|                     File| Frequency|
+------------------------------------+
|                  RESTART|       100|
|                 PARAVIEW|       100|
|         SURFACE_PARAVIEW|       100|
+------------------------------------+
Writing the convergence history file every 1 inner iterations.
Writing the screen convergence history every 25 inner iterations.
The tabular file format is CSV (.csv).
Convergence history file name: history.
Forces breakdown file name: forces_breakdown.dat.
Surface file name: surface.
Volume file name: vol_solution.
Restart file name: restart.dat.

------------- Config File Boundary Information ( Zone 0 ) ---------------
+-----------------------------------------------------------------------+
|                        Marker Type|                        Marker Name|
+-----------------------------------------------------------------------+
|                          Far-field|                          far-field|
+-----------------------------------------------------------------------+
|                     Heat flux wall|                               wall|
+-----------------------------------------------------------------------+

-------------------- Output Preprocessing ( Zone 0 ) --------------------

WARNING: SURFACE_PRESSURE_DROP can only be computed for at least 2 surfaces (outlet, inlet, ...)

  Info: Ignoring the following screen output fields:
  RMS_NU_TILDE
Screen output fields: INNER_ITER, RMS_DENSITY, RMS_MOMENTUM-X, RMS_MOMENTUM-Y, RMS_ENERGY, DRAG, LIFT, MOMENT_Z, LINSOL_RESIDUAL
History output group(s): ITER, RMS_RES, AERO_COEFF
Convergence field(s): LIFT
Warning: No (valid) fields chosen for time convergence monitoring. Time convergence monitoring inactive.
Volume output fields: COORDINATES, SOLUTION, PRIMITIVE

------------------- Geometry Preprocessing ( Zone 0 ) -------------------
Two dimensional problem.
66015 grid points before partitioning.
65610 volume elements before partitioning.
2 surface markers.
405 boundary elements in index 0 (Marker = far-field).
405 boundary elements in index 1 (Marker = wall).
Executing the partitioning functions.
Building the graph adjacency structure.
Calling ParMETIS... graph partitioning complete (888 edge cuts).
Distributing ParMETIS coloring.
Rebalancing vertices.
Rebalancing volume element connectivity.
Rebalancing markers and surface elements.
67791 vertices including ghost points. 
66494 interior elements including halo cells. 
66494 quadrilaterals.
Establishing MPI communication patterns.
Setting point connectivity.
Renumbering points (Reverse Cuthill McKee Ordering).
Recomputing point connectivity.
Setting element connectivity.
Checking the numerical grid orientation.
All volume elements are correctly orientend.
All surface elements are correctly orientend.
Identifying edges and vertices.
Setting the control volume structure.
Area of the computational grid: 177681.
Searching for the closest normal neighbors to the surfaces.
Storing a mapping from global to local point index.
Compute the surface curvature.
Max K: 1084.38. Mean K: 3.59037. Standard deviation K: 49.7608.
Checking for periodicity.
Computing mesh quality statistics for the dual control volumes.
+--------------------------------------------------------------+
|           Mesh Quality Metric|        Minimum|        Maximum|
+--------------------------------------------------------------+
|    Orthogonality Angle (deg.)|         82.757|             90|
|     CV Face Area Aspect Ratio|        1.00372|        11629.9|
|           CV Sub-Volume Ratio|              1|        2.23945|
+--------------------------------------------------------------+
Finding max control volume width.
Communicating number of neighbors.
Wetted area = 5.32649 m.
Area projection in the x-plane = 0.29702 m, y-plane = 2.61984 m.
Max. coordinate in the x-direction = 2.62 m, y-direction = 0.165086 m.
Min. coordinate in the x-direction = 0 m, y-direction = -0.119236 m.
Computing wall distances.

-------------------- Solver Preprocessing ( Zone 0 ) --------------------
Viscous flow: Computing pressure using the ideal gas law
based on the free-stream temperature and a density computed
from the Reynolds number.
Force coefficients computed using free-stream values.

-- Models:
+------------------------------------------------------------------------------+
|          Viscosity Model|        Conductivity Model|              Fluid Model|
+------------------------------------------------------------------------------+
|               SUTHERLAND|          CONSTANT_PRANDTL|             STANDARD_AIR|
+------------------------------------------------------------------------------+
-- Fluid properties:
+------------------------------------------------------------------------------+
|                  Name|    Dim. value|    Ref. value|      Unit|Non-dim. value|
+------------------------------------------------------------------------------+
|        Ref. Viscosity|     1.716e-05|       416.883|   N.s/m^2|   4.11626e-08|
|      Sutherland Temp.|        273.15|        288.16|         K|      0.947911|
|     Sutherland Const.|         110.4|        288.16|         K|       0.38312|
+------------------------------------------------------------------------------+
|        Prandtl (Lam.)|             -|             -|         -|          0.72|
|       Prandtl (Turb.)|             -|             -|         -|           0.9|
+------------------------------------------------------------------------------+
|          Gas Constant|       287.058|       401.881|  N.m/kg.K|      0.714286|
|      Spec. Heat Ratio|             -|             -|         -|           1.4|
+------------------------------------------------------------------------------+
-- Initial and free-stream conditions:
+------------------------------------------------------------------------------+
|                  Name|    Dim. value|    Ref. value|      Unit|Non-dim. value|
+------------------------------------------------------------------------------+
|       Static Pressure|        101333|        141867|        Pa|      0.714286|
|               Density|       1.22504|       1.22504|    kg/m^3|             1|
|           Temperature|        288.16|        288.16|         K|             1|
|          Total Energy|        210443|        115806|   m^2/s^2|        1.8172|
|            Velocity-X|       82.5486|       340.303|       m/s|      0.242574|
|            Velocity-Y|       20.5817|       340.303|       m/s|     0.0604805|
|    Velocity Magnitude|       85.0757|       340.303|       m/s|          0.25|
+------------------------------------------------------------------------------+
|             Viscosity|   1.78935e-05|       416.883|   N.s/m^2|    4.2922e-08|
|          Conductivity|             -|        167537|   W/m^2.K|             -|
|     Turb. Kin. Energy|       27.1421|        115806|   m^2/s^2|   0.000234375|
|     Spec. Dissipation|        185822|       340.303|       1/s|       546.049|
+------------------------------------------------------------------------------+
|           Mach Number|             -|             -|         -|          0.25|
|       Reynolds Number|             -|             -|         -|   1.52602e+07|
+------------------------------------------------------------------------------+
Initialize Jacobian structure (Navier-Stokes). MG level: 0.
Initialize Jacobian structure (SST model).

------------------- Numerics Preprocessing ( Zone 0 ) -------------------

----------------- Integration Preprocessing ( Zone 0 ) ------------------

------------------- Iteration Preprocessing ( Zone 0 ) ------------------
Euler/Navier-Stokes/RANS fluid iteration.

------------------------------ Begin Solver -----------------------------

Simulation Run using the Single-zone Driver
WARNING: SU2 was not compiled for an AVX-capable architecture.
+--------------------------------------------------------------------------------------------------------------------+
|  Inner_Iter|    rms[Rho]|   rms[RhoU]|   rms[RhoV]|   rms[RhoE]|          CD|          CL|         CMz|   LinSolRes|
+--------------------------------------------------------------------------------------------------------------------+
|           0|   -3.344282|   -3.613783|   -3.369914|   -2.938239|    0.059809|    1.529161|    0.426825|   -0.833352|
|          25|   -5.335192|   -4.773045|   -4.723767|   -4.909442|    0.068442|    1.581769|    0.452660|   -0.921442|
|          50|   -5.677660|   -4.876155|   -5.060682|   -5.198769|    0.057463|    1.609069|    0.447892|   -0.645207|
|          75|   -6.035895|   -5.057281|   -5.478759|   -5.477283|    0.041034|    1.693418|    0.467164|   -0.699112|
|         100|   -6.048236|   -5.239310|   -5.645759|   -5.540228|    0.030762|    1.617675|    0.440421|   -0.666728|
+-----------------------------------------------------------------------+
|        File Writing Summary       |              Filename             |
+-----------------------------------------------------------------------+
|SU2 binary restart                 |restart.dat                        |
|Paraview                           |vol_solution.vtu                   |
|Paraview surface                   |surface.vtu                        |
+-----------------------------------------------------------------------+
+--------------------------------------------------------------------------------------------------------------------+
|  Inner_Iter|    rms[Rho]|   rms[RhoU]|   rms[RhoV]|   rms[RhoE]|          CD|          CL|         CMz|   LinSolRes|
+--------------------------------------------------------------------------------------------------------------------+
|         125|   -6.063828|   -5.438368|   -5.844565|   -5.625330|    0.047079|    1.609682|    0.442694|   -0.677860|
|         150|   -6.704592|   -5.783394|   -6.251998|   -6.174523|    0.052368|    1.624793|    0.447815|   -0.691325|
|         175|   -7.003181|   -6.069488|   -6.505729|   -6.541667|    0.052762|    1.630281|    0.448029|   -0.750764|
|         200|   -7.276725|   -6.322292|   -6.830659|   -6.795342|    0.055855|    1.625781|    0.445847|   -0.936843|
+-----------------------------------------------------------------------+
|        File Writing Summary       |              Filename             |
+-----------------------------------------------------------------------+
|SU2 binary restart                 |restart.dat                        |
|Paraview                           |vol_solution.vtu                   |
|Paraview surface                   |surface.vtu                        |
+-----------------------------------------------------------------------+
+--------------------------------------------------------------------------------------------------------------------+
|  Inner_Iter|    rms[Rho]|   rms[RhoU]|   rms[RhoV]|   rms[RhoE]|          CD|          CL|         CMz|   LinSolRes|
+--------------------------------------------------------------------------------------------------------------------+
|         225|   -7.256537|   -6.531250|   -6.965875|   -6.828932|    0.061646|    1.621339|    0.444518|   -0.718714|
|         250|   -7.166989|   -6.583109|   -7.069444|   -6.791355|    0.069273|    1.617621|    0.443130|   -0.671564|
|         275|   -7.034185|   -6.519032|   -7.028306|   -6.672472|    0.079867|    1.615220|    0.442170|   -0.933004|
|         300|   -6.940656|   -6.442776|   -6.958561|   -6.583732|    0.087650|    1.615646|    0.441604|   -0.865506|
+-----------------------------------------------------------------------+
|        File Writing Summary       |              Filename             |
+-----------------------------------------------------------------------+
|SU2 binary restart                 |restart.dat                        |
|Paraview                           |vol_solution.vtu                   |
|Paraview surface                   |surface.vtu                        |
+-----------------------------------------------------------------------+
+--------------------------------------------------------------------------------------------------------------------+
|  Inner_Iter|    rms[Rho]|   rms[RhoU]|   rms[RhoV]|   rms[RhoE]|          CD|          CL|         CMz|   LinSolRes|
+--------------------------------------------------------------------------------------------------------------------+
|         325|   -6.804949|   -6.308316|   -6.828898|   -6.445896|    0.101640|    1.609185|    0.438268|   -0.777768|
|         350|   -6.567213|   -6.103138|   -6.554977|   -6.210240|    0.128426|    1.606826|    0.434302|   -0.668212|
|         375|   -6.426429|   -5.949424|   -6.347413|   -6.077105|    0.155692|    1.608027|    0.430125|   -0.637378|
|         400|   -6.312551|   -5.859827|   -6.226407|   -5.966792|    0.184090|    1.633653|    0.440906|   -0.929025|
+-----------------------------------------------------------------------+
|        File Writing Summary       |              Filename             |
+-----------------------------------------------------------------------+
|SU2 binary restart                 |restart.dat                        |
|Paraview                           |vol_solution.vtu                   |
|Paraview surface                   |surface.vtu                        |
+-----------------------------------------------------------------------+
+--------------------------------------------------------------------------------------------------------------------+
|  Inner_Iter|    rms[Rho]|   rms[RhoU]|   rms[RhoV]|   rms[RhoE]|          CD|          CL|         CMz|   LinSolRes|
+--------------------------------------------------------------------------------------------------------------------+
|         425|   -6.272526|   -5.789498|   -6.066040|   -5.931520|    0.227447|    1.708064|    0.498496|   -0.642015|
|         450|   -6.199182|   -5.702106|   -5.912246|   -5.862118|    0.287558|    1.832156|    0.609576|   -0.624315|
|         475|   -6.118606|   -5.621102|   -5.799314|   -5.794865|    0.362757|    1.982203|    0.762203|   -0.637055|
|         500|   -6.068181|   -5.551294|   -5.721424|   -5.759872|    0.438381|    2.118505|    0.918820|   -0.705080|
+-----------------------------------------------------------------------+
|        File Writing Summary       |              Filename             |
+-----------------------------------------------------------------------+
|SU2 binary restart                 |restart.dat                        |
|Paraview                           |vol_solution.vtu                   |
|Paraview surface                   |surface.vtu                        |
+-----------------------------------------------------------------------+
+--------------------------------------------------------------------------------------------------------------------+
|  Inner_Iter|    rms[Rho]|   rms[RhoU]|   rms[RhoV]|   rms[RhoE]|          CD|          CL|         CMz|   LinSolRes|
+--------------------------------------------------------------------------------------------------------------------+
|         525|   -6.083793|   -5.475312|   -5.673641|   -5.775113|    0.482316|    2.156551|    1.003149|   -0.827779|
|         550|   -6.081303|   -5.380007|   -5.620703|   -5.758297|    0.485034|    2.057015|    0.988818|   -0.981476|
|         575|   -5.985711|   -5.232314|   -5.458897|   -5.614896|    0.438910|    1.767020|    0.850138|   -1.035292|
|         600|   -5.680972|   -4.973799|   -5.186709|   -5.282500|    0.309421|    1.070934|    0.503027|   -0.674827|
+-----------------------------------------------------------------------+
|        File Writing Summary       |              Filename             |
+-----------------------------------------------------------------------+
|SU2 binary restart                 |restart.dat                        |
|Paraview                           |vol_solution.vtu                   |
|Paraview surface                   |surface.vtu                        |
+-----------------------------------------------------------------------+
+--------------------------------------------------------------------------------------------------------------------+
|  Inner_Iter|    rms[Rho]|   rms[RhoU]|   rms[RhoV]|   rms[RhoE]|          CD|          CL|         CMz|   LinSolRes|
+--------------------------------------------------------------------------------------------------------------------+
|         625|   -5.434200|   -4.655946|   -4.923644|   -5.018697|    0.158346|    0.263497|    0.119655|   -0.662870|
|         650|   -5.151511|   -4.417790|   -4.690004|   -4.735861|    0.081810|    0.137650|    0.078565|   -0.691999|
|         675|   -4.850478|   -4.277562|   -4.298660|   -4.463966|    0.239718|    0.914585|    0.542849|   -0.679442|
|         700|   -4.935581|   -4.257048|   -4.260164|   -4.536506|    0.116714|    0.015218|   -0.024881|   -0.682233|
+-----------------------------------------------------------------------+
|        File Writing Summary       |              Filename             |
+-----------------------------------------------------------------------+
|SU2 binary restart                 |restart.dat                        |
|Paraview                           |vol_solution.vtu                   |
|Paraview surface                   |surface.vtu                        |
+-----------------------------------------------------------------------+
+--------------------------------------------------------------------------------------------------------------------+
|  Inner_Iter|    rms[Rho]|   rms[RhoU]|   rms[RhoV]|   rms[RhoE]|          CD|          CL|         CMz|   LinSolRes|
+--------------------------------------------------------------------------------------------------------------------+
|         725|   -4.969140|   -4.120827|   -4.226876|   -4.525009|    0.127386|    0.397614|    0.217710|   -0.906401|
|         750|   -4.935230|   -3.988613|   -4.188293|   -4.425844|    0.145279|    0.615792|    0.197451|   -1.009067|
|         775|   -4.811513|   -3.913140|   -4.177506|   -4.300187|    0.003602|   -0.000958|   -0.118632|   -0.945406|
|         800|   -4.837088|   -4.171248|   -4.414678|   -4.404690|    0.195701|    0.649089|    0.337230|   -0.738043|
+-----------------------------------------------------------------------+
|        File Writing Summary       |              Filename             |
+-----------------------------------------------------------------------+
|SU2 binary restart                 |restart.dat                        |
|Paraview                           |vol_solution.vtu                   |
|Paraview surface                   |surface.vtu                        |
+-----------------------------------------------------------------------+
+--------------------------------------------------------------------------------------------------------------------+
|  Inner_Iter|    rms[Rho]|   rms[RhoU]|   rms[RhoV]|   rms[RhoE]|          CD|          CL|         CMz|   LinSolRes|
+--------------------------------------------------------------------------------------------------------------------+
|         825|   -5.125120|   -4.357410|   -4.607001|   -4.686775|    0.228599|    0.814422|    0.358342|   -0.824331|
|         850|   -5.273532|   -4.467892|   -4.722776|   -4.825982|    0.105896|    0.579409|    0.190607|   -0.976064|
|         875|   -5.155181|   -4.719111|   -4.944960|   -4.750214|    0.182039|    0.724116|    0.315672|   -0.639654|
|         900|   -5.367041|   -5.019577|   -5.187459|   -4.966217|    0.133815|    0.669641|    0.204350|   -0.663769|
+-----------------------------------------------------------------------+
|        File Writing Summary       |              Filename             |
+-----------------------------------------------------------------------+
|SU2 binary restart                 |restart.dat                        |
|Paraview                           |vol_solution.vtu                   |
|Paraview surface                   |surface.vtu                        |
+-----------------------------------------------------------------------+
+--------------------------------------------------------------------------------------------------------------------+
|  Inner_Iter|    rms[Rho]|   rms[RhoU]|   rms[RhoV]|   rms[RhoE]|          CD|          CL|         CMz|   LinSolRes|
+--------------------------------------------------------------------------------------------------------------------+
|         925|   -5.969581|   -5.235541|   -5.579063|   -5.565742|    0.227821|    0.978540|    0.396208|   -0.641457|
|         950|   -6.012884|   -5.341436|   -5.660017|   -5.608755|    0.211033|    0.974623|    0.384245|   -0.632831|
|         975|   -6.160888|   -5.536637|   -5.819431|   -5.756624|    0.211223|    0.938366|    0.375463|   -0.648465|
|        1000|   -6.379938|   -5.684901|   -5.969112|   -5.994298|    0.195746|    0.845136|    0.338868|   -0.793029|
+-----------------------------------------------------------------------+
|        File Writing Summary       |              Filename             |
+-----------------------------------------------------------------------+
|SU2 binary restart                 |restart.dat                        |
|Paraview                           |vol_solution.vtu                   |
|Paraview surface                   |surface.vtu                        |
+-----------------------------------------------------------------------+
+--------------------------------------------------------------------------------------------------------------------+
|  Inner_Iter|    rms[Rho]|   rms[RhoU]|   rms[RhoV]|   rms[RhoE]|          CD|          CL|         CMz|   LinSolRes|
+--------------------------------------------------------------------------------------------------------------------+
|        1025|   -6.436483|   -5.641653|   -5.931968|   -6.041865|    0.186907|    0.784676|    0.309149|   -0.649545|
|        1050|   -6.479427|   -5.624507|   -5.950951|   -6.071378|    0.184470|    0.752627|    0.301506|   -0.624758|
|        1075|   -6.502333|   -5.683172|   -5.993070|   -6.114828|    0.178250|    0.726771|    0.292435|   -0.905296|
|        1100|   -6.557626|   -5.753251|   -6.069132|   -6.151176|    0.168272|    0.672964|    0.266930|   -1.020626|
+-----------------------------------------------------------------------+
|        File Writing Summary       |              Filename             |
+-----------------------------------------------------------------------+
|SU2 binary restart                 |restart.dat                        |
|Paraview                           |vol_solution.vtu                   |
|Paraview surface                   |surface.vtu                        |
+-----------------------------------------------------------------------+
+--------------------------------------------------------------------------------------------------------------------+
|  Inner_Iter|    rms[Rho]|   rms[RhoU]|   rms[RhoV]|   rms[RhoE]|          CD|          CL|         CMz|   LinSolRes|
+--------------------------------------------------------------------------------------------------------------------+
|        1125|   -6.562699|   -5.703921|   -6.044019|   -6.131704|    0.170861|    0.690315|    0.272207|   -0.637274|
|        1150|   -6.653785|   -5.786692|   -6.135600|   -6.227935|    0.173235|    0.713245|    0.282892|   -0.632915|
|        1175|   -6.809474|   -6.017879|   -6.347093|   -6.404683|    0.171493|    0.725065|    0.284297|   -0.648752|
|        1200|   -6.930989|   -6.200701|   -6.514824|   -6.571070|    0.171121|    0.732473|    0.284243|   -0.616355|
+-----------------------------------------------------------------------+
|        File Writing Summary       |              Filename             |
+-----------------------------------------------------------------------+
|SU2 binary restart                 |restart.dat                        |
|Paraview                           |vol_solution.vtu                   |
|Paraview surface                   |surface.vtu                        |
+-----------------------------------------------------------------------+
+--------------------------------------------------------------------------------------------------------------------+
|  Inner_Iter|    rms[Rho]|   rms[RhoU]|   rms[RhoV]|   rms[RhoE]|          CD|          CL|         CMz|   LinSolRes|
+--------------------------------------------------------------------------------------------------------------------+
|        1225|   -7.066691|   -6.297720|   -6.637590|   -6.689693|    0.174817|    0.761173|    0.296238|   -0.698765|
|        1250|   -7.165983|   -6.423185|   -6.765880|   -6.791748|    0.175847|    0.777168|    0.302272|   -0.651402|
|        1275|   -7.315441|   -6.454739|   -6.887709|   -6.928826|    0.175386|    0.782007|    0.303038|   -0.707751|
|        1300|   -7.457985|   -6.596460|   -7.079974|   -7.080259|    0.176165|    0.789352|    0.306456|   -0.627738|
+-----------------------------------------------------------------------+
|        File Writing Summary       |              Filename             |
+-----------------------------------------------------------------------+
|SU2 binary restart                 |restart.dat                        |
|Paraview                           |vol_solution.vtu                   |
|Paraview surface                   |surface.vtu                        |
+-----------------------------------------------------------------------+
+--------------------------------------------------------------------------------------------------------------------+
|  Inner_Iter|    rms[Rho]|   rms[RhoU]|   rms[RhoV]|   rms[RhoE]|          CD|          CL|         CMz|   LinSolRes|
+--------------------------------------------------------------------------------------------------------------------+
|        1325|   -7.552643|   -6.728346|   -7.172376|   -7.144168|    0.175548|    0.790515|    0.306808|   -0.631562|
|        1350|   -7.599227|   -6.755117|   -7.100901|   -7.175750|    0.174503|    0.786970|    0.305388|   -0.654196|
|        1375|   -7.685555|   -6.804850|   -7.141882|   -7.300190|    0.172966|    0.780845|    0.302368|   -0.941029|
|        1400|   -7.671667|   -6.883744|   -7.176132|   -7.311451|    0.172278|    0.778639|    0.301572|   -0.962845|
+-----------------------------------------------------------------------+
|        File Writing Summary       |              Filename             |
+-----------------------------------------------------------------------+
|SU2 binary restart                 |restart.dat                        |
|Paraview                           |vol_solution.vtu                   |
|Paraview surface                   |surface.vtu                        |
+-----------------------------------------------------------------------+
+--------------------------------------------------------------------------------------------------------------------+
|  Inner_Iter|    rms[Rho]|   rms[RhoU]|   rms[RhoV]|   rms[RhoE]|          CD|          CL|         CMz|   LinSolRes|
+--------------------------------------------------------------------------------------------------------------------+
|        1425|   -7.752691|   -6.899743|   -7.225200|   -7.368315|    0.170875|    0.773609|    0.299145|   -0.644365|
|        1450|   -7.862349|   -6.985596|   -7.353663|   -7.460558|    0.170097|    0.771543|    0.297918|   -0.670263|
|        1475|   -7.793102|   -7.017801|   -7.376817|   -7.403451|    0.169472|    0.771370|    0.297582|   -1.066088|
|        1500|   -7.926091|   -7.093834|   -7.459586|   -7.541750|    0.168543|    0.770129|    0.296423|   -0.686537|
+-----------------------------------------------------------------------+
|        File Writing Summary       |              Filename             |
+-----------------------------------------------------------------------+
|SU2 binary restart                 |restart.dat                        |
|Paraview                           |vol_solution.vtu                   |
|Paraview surface                   |surface.vtu                        |
+-----------------------------------------------------------------------+
+--------------------------------------------------------------------------------------------------------------------+
|  Inner_Iter|    rms[Rho]|   rms[RhoU]|   rms[RhoV]|   rms[RhoE]|          CD|          CL|         CMz|   LinSolRes|
+--------------------------------------------------------------------------------------------------------------------+
|        1525|   -7.969317|   -7.066494|   -7.477841|   -7.569335|    0.168396|    0.772687|    0.297204|   -0.861301|
|        1550|   -7.974700|   -7.161583|   -7.541820|   -7.613118|    0.167837|    0.774024|    0.297193|   -0.992554|
|        1575|   -7.970200|   -7.139250|   -7.525200|   -7.606738|    0.167641|    0.776365|    0.297845|   -0.684095|
|        1600|   -7.980185|   -7.197196|   -7.577985|   -7.663543|    0.167289|    0.778714|    0.298304|   -0.759407|
+-----------------------------------------------------------------------+
|        File Writing Summary       |              Filename             |
+-----------------------------------------------------------------------+
|SU2 binary restart                 |restart.dat                        |
|Paraview                           |vol_solution.vtu                   |
|Paraview surface                   |surface.vtu                        |
+-----------------------------------------------------------------------+
+--------------------------------------------------------------------------------------------------------------------+
|  Inner_Iter|    rms[Rho]|   rms[RhoU]|   rms[RhoV]|   rms[RhoE]|          CD|          CL|         CMz|   LinSolRes|
+--------------------------------------------------------------------------------------------------------------------+
|        1625|   -7.992496|   -7.202215|   -7.612695|   -7.679738|    0.166987|    0.780681|    0.298735|   -0.764452|
|        1650|   -7.988883|   -7.184870|   -7.602926|   -7.681053|    0.166854|    0.783105|    0.299550|   -0.769522|
|        1675|   -7.996406|   -7.167708|   -7.581586|   -7.673688|    0.166613|    0.784633|    0.299837|   -0.767515|
|        1700|   -8.003722|   -7.154336|   -7.592754|   -7.665778|    0.166241|    0.785703|    0.299942|   -0.770677|
+-----------------------------------------------------------------------+
|        File Writing Summary       |              Filename             |
+-----------------------------------------------------------------------+
|SU2 binary restart                 |restart.dat                        |
|Paraview                           |vol_solution.vtu                   |
|Paraview surface                   |surface.vtu                        |
+-----------------------------------------------------------------------+
+--------------------------------------------------------------------------------------------------------------------+
|  Inner_Iter|    rms[Rho]|   rms[RhoU]|   rms[RhoV]|   rms[RhoE]|          CD|          CL|         CMz|   LinSolRes|
+--------------------------------------------------------------------------------------------------------------------+
|        1725|   -8.021965|   -7.161234|   -7.600527|   -7.668791|    0.165887|    0.787122|    0.300138|   -1.032404|
|        1750|   -8.012218|   -7.161514|   -7.631699|   -7.651925|    0.165471|    0.788225|    0.300253|   -0.719990|
|        1775|   -8.057604|   -7.171589|   -7.637028|   -7.660116|    0.165188|    0.789484|    0.300509|   -0.759386|
|        1800|   -8.066971|   -7.189627|   -7.668493|   -7.688005|    0.164792|    0.790206|    0.300438|   -0.785139|
+-----------------------------------------------------------------------+
|        File Writing Summary       |              Filename             |
+-----------------------------------------------------------------------+
|SU2 binary restart                 |restart.dat                        |
|Paraview                           |vol_solution.vtu                   |
|Paraview surface                   |surface.vtu                        |
+-----------------------------------------------------------------------+
+--------------------------------------------------------------------------------------------------------------------+
|  Inner_Iter|    rms[Rho]|   rms[RhoU]|   rms[RhoV]|   rms[RhoE]|          CD|          CL|         CMz|   LinSolRes|
+--------------------------------------------------------------------------------------------------------------------+
|        1825|   -8.094808|   -7.196798|   -7.658113|   -7.719723|    0.164442|    0.791176|    0.300613|   -0.701953|
|        1850|   -8.080752|   -7.235358|   -7.689391|   -7.700993|    0.163840|    0.792931|    0.300731|   -0.685886|
|        1875|   -8.126468|   -7.263862|   -7.713708|   -7.760195|    0.163293|    0.794036|    0.300823|   -0.782846|
|        1900|   -8.097275|   -7.250617|   -7.702050|   -7.731498|    0.163046|    0.795354|    0.301150|   -0.746796|
+-----------------------------------------------------------------------+
|        File Writing Summary       |              Filename             |
+-----------------------------------------------------------------------+
|SU2 binary restart                 |restart.dat                        |
|Paraview                           |vol_solution.vtu                   |
|Paraview surface                   |surface.vtu                        |
+-----------------------------------------------------------------------+
+--------------------------------------------------------------------------------------------------------------------+
|  Inner_Iter|    rms[Rho]|   rms[RhoU]|   rms[RhoV]|   rms[RhoE]|          CD|          CL|         CMz|   LinSolRes|
+--------------------------------------------------------------------------------------------------------------------+
|        1925|   -8.105050|   -7.244914|   -7.696001|   -7.737619|    0.162598|    0.795939|    0.301003|   -0.726158|
|        1950|   -8.093462|   -7.248037|   -7.689136|   -7.720370|    0.162106|    0.796692|    0.300884|   -0.771962|
|        1975|   -8.133120|   -7.243582|   -7.701585|   -7.767388|    0.161662|    0.797569|    0.300838|   -0.879824|
|        2000|   -8.156041|   -7.248371|   -7.717416|   -7.808643|    0.161115|    0.798330|    0.300653|   -1.073413|
+-----------------------------------------------------------------------+
|        File Writing Summary       |              Filename             |
+-----------------------------------------------------------------------+
|SU2 binary restart                 |restart.dat                        |
|Paraview                           |vol_solution.vtu                   |
|Paraview surface                   |surface.vtu                        |
+-----------------------------------------------------------------------+
+--------------------------------------------------------------------------------------------------------------------+
|  Inner_Iter|    rms[Rho]|   rms[RhoU]|   rms[RhoV]|   rms[RhoE]|          CD|          CL|         CMz|   LinSolRes|
+--------------------------------------------------------------------------------------------------------------------+
|        2025|   -8.073293|   -7.240445|   -7.691083|   -7.691584|    0.160730|    0.799777|    0.300884|   -0.649240|
|        2050|   -8.001675|   -7.206173|   -7.597023|   -7.634018|    0.160176|    0.802383|    0.301378|   -0.725135|
|        2075|   -7.975136|   -7.180966|   -7.564033|   -7.606366|    0.159650|    0.804597|    0.301792|   -0.575952|
|        2100|   -8.008262|   -7.178692|   -7.593977|   -7.663675|    0.158997|    0.806264|    0.301802|   -0.659978|
+-----------------------------------------------------------------------+
|        File Writing Summary       |              Filename             |
+-----------------------------------------------------------------------+
|SU2 binary restart                 |restart.dat                        |
|Paraview                           |vol_solution.vtu                   |
|Paraview surface                   |surface.vtu                        |
+-----------------------------------------------------------------------+
+--------------------------------------------------------------------------------------------------------------------+
|  Inner_Iter|    rms[Rho]|   rms[RhoU]|   rms[RhoV]|   rms[RhoE]|          CD|          CL|         CMz|   LinSolRes|
+--------------------------------------------------------------------------------------------------------------------+
|        2125|   -8.050142|   -7.216719|   -7.688840|   -7.690981|    0.158391|    0.808448|    0.302068|   -0.956434|
|        2150|   -8.058197|   -7.211666|   -7.706234|   -7.705208|    0.157855|    0.809521|    0.302004|   -0.740046|
|        2175|   -8.058069|   -7.208722|   -7.694974|   -7.701293|    0.157470|    0.811035|    0.302240|   -0.996560|
|        2200|   -8.056603|   -7.202245|   -7.676826|   -7.696846|    0.157032|    0.812704|    0.302459|   -0.749177|
+-----------------------------------------------------------------------+
|        File Writing Summary       |              Filename             |
+-----------------------------------------------------------------------+
|SU2 binary restart                 |restart.dat                        |
|Paraview                           |vol_solution.vtu                   |
|Paraview surface                   |surface.vtu                        |
+-----------------------------------------------------------------------+
+--------------------------------------------------------------------------------------------------------------------+
|  Inner_Iter|    rms[Rho]|   rms[RhoU]|   rms[RhoV]|   rms[RhoE]|          CD|          CL|         CMz|   LinSolRes|
+--------------------------------------------------------------------------------------------------------------------+
|        2225|   -8.042040|   -7.195390|   -7.658240|   -7.687159|    0.156636|    0.813992|    0.302599|   -0.759571|
|        2250|   -8.018785|   -7.186566|   -7.631444|   -7.665151|    0.156334|    0.815644|    0.302961|   -0.759357|
|        2275|   -8.015829|   -7.180422|   -7.625541|   -7.661851|    0.155827|    0.817268|    0.303063|   -0.743345|
|        2300|   -8.015864|   -7.182693|   -7.643260|   -7.663321|    0.155175|    0.819386|    0.303270|   -0.670523|
+-----------------------------------------------------------------------+
|        File Writing Summary       |              Filename             |
+-----------------------------------------------------------------------+
|SU2 binary restart                 |restart.dat                        |
|Paraview                           |vol_solution.vtu                   |
|Paraview surface                   |surface.vtu                        |
+-----------------------------------------------------------------------+
+--------------------------------------------------------------------------------------------------------------------+
|  Inner_Iter|    rms[Rho]|   rms[RhoU]|   rms[RhoV]|   rms[RhoE]|          CD|          CL|         CMz|   LinSolRes|
+--------------------------------------------------------------------------------------------------------------------+
|        2325|   -8.022503|   -7.181380|   -7.666653|   -7.661530|    0.154292|    0.821320|    0.303192|   -1.061400|
|        2350|   -8.031107|   -7.184219|   -7.679740|   -7.667501|    0.153840|    0.822580|    0.303237|   -0.740003|
|        2375|   -8.032217|   -7.177885|   -7.662125|   -7.672913|    0.153445|    0.824271|    0.303552|   -0.748426|
|        2400|   -7.987248|   -7.164378|   -7.619504|   -7.625645|    0.152817|    0.827202|    0.304029|   -0.602022|
+-----------------------------------------------------------------------+
|        File Writing Summary       |              Filename             |
+-----------------------------------------------------------------------+
|SU2 binary restart                 |restart.dat                        |
|Paraview                           |vol_solution.vtu                   |
|Paraview surface                   |surface.vtu                        |
+-----------------------------------------------------------------------+
+--------------------------------------------------------------------------------------------------------------------+
|  Inner_Iter|    rms[Rho]|   rms[RhoU]|   rms[RhoV]|   rms[RhoE]|          CD|          CL|         CMz|   LinSolRes|
+--------------------------------------------------------------------------------------------------------------------+
|        2425|   -8.009093|   -7.156725|   -7.600243|   -7.662150|    0.152138|    0.829420|    0.304231|   -0.643045|
|        2450|   -7.967189|   -7.152270|   -7.592987|   -7.618232|    0.151512|    0.831523|    0.304437|   -0.738318|
|        2475|   -8.005630|   -7.150988|   -7.624203|   -7.661093|    0.150891|    0.832699|    0.304297|   -0.657432|
|        2500|   -7.990906|   -7.150057|   -7.639233|   -7.635004|    0.150375|    0.834327|    0.304439|   -0.725384|
+-----------------------------------------------------------------------+
|        File Writing Summary       |              Filename             |
+-----------------------------------------------------------------------+
|SU2 binary restart                 |restart.dat                        |
|Paraview                           |vol_solution.vtu                   |
|Paraview surface                   |surface.vtu                        |
+-----------------------------------------------------------------------+
+--------------------------------------------------------------------------------------------------------------------+
|  Inner_Iter|    rms[Rho]|   rms[RhoU]|   rms[RhoV]|   rms[RhoE]|          CD|          CL|         CMz|   LinSolRes|
+--------------------------------------------------------------------------------------------------------------------+
|        2525|   -8.081757|   -7.144679|   -7.641846|   -7.729779|    0.149793|    0.835540|    0.304353|   -1.085896|
|        2550|   -7.988234|   -7.137612|   -7.625068|   -7.622663|    0.149337|    0.837142|    0.304474|   -0.744768|
|        2575|   -7.951052|   -7.128027|   -7.572698|   -7.587368|    0.148687|    0.840694|    0.305150|   -0.569621|
|        2600|   -7.940895|   -7.120610|   -7.553402|   -7.584831|    0.147902|    0.843010|    0.305304|   -0.575582|
+-----------------------------------------------------------------------+
|        File Writing Summary       |              Filename             |
+-----------------------------------------------------------------------+
|SU2 binary restart                 |restart.dat                        |
|Paraview                           |vol_solution.vtu                   |
|Paraview surface                   |surface.vtu                        |
+-----------------------------------------------------------------------+
+--------------------------------------------------------------------------------------------------------------------+
|  Inner_Iter|    rms[Rho]|   rms[RhoU]|   rms[RhoV]|   rms[RhoE]|          CD|          CL|         CMz|   LinSolRes|
+--------------------------------------------------------------------------------------------------------------------+
|        2625|   -7.929621|   -7.111595|   -7.541724|   -7.571104|    0.147458|    0.844776|    0.305508|   -0.754145|
|        2650|   -7.939697|   -7.118150|   -7.579982|   -7.592713|    0.146590|    0.847039|    0.305531|   -0.649733|
|        2675|   -7.940128|   -7.118632|   -7.605151|   -7.587519|    0.145994|    0.849229|    0.305730|   -0.724825|
|        2700|   -7.953557|   -7.111464|   -7.591903|   -7.595407|    0.145414|    0.851473|    0.305975|   -0.657657|
+-----------------------------------------------------------------------+
|        File Writing Summary       |              Filename             |
+-----------------------------------------------------------------------+
|SU2 binary restart                 |restart.dat                        |
|Paraview                           |vol_solution.vtu                   |
|Paraview surface                   |surface.vtu                        |
+-----------------------------------------------------------------------+
+--------------------------------------------------------------------------------------------------------------------+
|  Inner_Iter|    rms[Rho]|   rms[RhoU]|   rms[RhoV]|   rms[RhoE]|          CD|          CL|         CMz|   LinSolRes|
+--------------------------------------------------------------------------------------------------------------------+
|        2725|   -7.969335|   -7.102931|   -7.567330|   -7.620989|    0.144589|    0.855016|    0.306478|   -0.977970|
|        2750|   -7.923653|   -7.095837|   -7.542489|   -7.569288|    0.144056|    0.856867|    0.306640|   -0.753375|
|        2775|   -7.911686|   -7.090343|   -7.538282|   -7.559761|    0.143608|    0.858859|    0.306931|   -0.731757|
|        2800|   -7.915962|   -7.089319|   -7.541273|   -7.565260|    0.143043|    0.860578|    0.306971|   -0.733161|
+-----------------------------------------------------------------------+
|        File Writing Summary       |              Filename             |
+-----------------------------------------------------------------------+
|SU2 binary restart                 |restart.dat                        |
|Paraview                           |vol_solution.vtu                   |
|Paraview surface                   |surface.vtu                        |
+-----------------------------------------------------------------------+
+--------------------------------------------------------------------------------------------------------------------+
|  Inner_Iter|    rms[Rho]|   rms[RhoU]|   rms[RhoV]|   rms[RhoE]|          CD|          CL|         CMz|   LinSolRes|
+--------------------------------------------------------------------------------------------------------------------+
|        2825|   -7.950873|   -7.082433|   -7.565019|   -7.613930|    0.142471|    0.862538|    0.307172|   -0.757495|
|        2850|   -7.973436|   -7.085177|   -7.569338|   -7.631231|    0.141613|    0.866320|    0.307616|   -0.852957|
|        2875|   -7.899543|   -7.079005|   -7.547792|   -7.542056|    0.140763|    0.869271|    0.307904|   -0.951854|
|        2900|   -7.911006|   -7.071716|   -7.532801|   -7.555007|    0.140253|    0.871618|    0.308221|   -0.738102|
+-----------------------------------------------------------------------+
|        File Writing Summary       |              Filename             |
+-----------------------------------------------------------------------+
|SU2 binary restart                 |restart.dat                        |
|Paraview                           |vol_solution.vtu                   |
|Paraview surface                   |surface.vtu                        |
+-----------------------------------------------------------------------+
+--------------------------------------------------------------------------------------------------------------------+
|  Inner_Iter|    rms[Rho]|   rms[RhoU]|   rms[RhoV]|   rms[RhoE]|          CD|          CL|         CMz|   LinSolRes|
+--------------------------------------------------------------------------------------------------------------------+
|        2925|   -7.897915|   -7.061990|   -7.524167|   -7.543611|    0.139648|    0.873285|    0.308227|   -0.991421|
|        2950|   -7.890605|   -7.058963|   -7.515553|   -7.536095|    0.139154|    0.875608|    0.308605|   -0.751906|
|        2975|   -7.890442|   -7.054142|   -7.523811|   -7.538364|    0.138390|    0.878742|    0.308936|   -0.659893|
|        3000|   -7.877880|   -7.060793|   -7.538958|   -7.518910|    0.137268|    0.881824|    0.308908|   -1.017839|
+-----------------------------------------------------------------------+
|        File Writing Summary       |              Filename             |
+-----------------------------------------------------------------------+
|SU2 binary restart                 |restart.dat                        |
|Paraview                           |vol_solution.vtu                   |
|Paraview surface                   |surface.vtu                        |
+-----------------------------------------------------------------------+
+--------------------------------------------------------------------------------------------------------------------+
|  Inner_Iter|    rms[Rho]|   rms[RhoU]|   rms[RhoV]|   rms[RhoE]|          CD|          CL|         CMz|   LinSolRes|
+--------------------------------------------------------------------------------------------------------------------+
|        3025|   -7.903347|   -7.056918|   -7.537415|   -7.548694|    0.136501|    0.885480|    0.309540|   -0.655914|
|        3050|   -7.873453|   -7.042114|   -7.505932|   -7.509286|    0.135599|    0.888841|    0.309814|   -0.974664|
|        3075|   -7.873340|   -7.040961|   -7.494494|   -7.519221|    0.134975|    0.891457|    0.310144|   -0.761300|
|        3100|   -7.860961|   -7.033518|   -7.484874|   -7.502190|    0.134344|    0.893419|    0.310196|   -0.734497|
+-----------------------------------------------------------------------+
|        File Writing Summary       |              Filename             |
+-----------------------------------------------------------------------+
|SU2 binary restart                 |restart.dat                        |
|Paraview                           |vol_solution.vtu                   |
|Paraview surface                   |surface.vtu                        |
+-----------------------------------------------------------------------+
+--------------------------------------------------------------------------------------------------------------------+
|  Inner_Iter|    rms[Rho]|   rms[RhoU]|   rms[RhoV]|   rms[RhoE]|          CD|          CL|         CMz|   LinSolRes|
+--------------------------------------------------------------------------------------------------------------------+
|        3125|   -7.916687|   -7.036239|   -7.516322|   -7.586112|    0.133660|    0.895328|    0.310184|   -1.077930|
|        3150|   -7.867164|   -7.035348|   -7.523601|   -7.510791|    0.132729|    0.899552|    0.310754|   -0.617539|
|        3175|   -7.926178|   -7.028286|   -7.517906|   -7.580301|    0.131790|    0.902946|    0.311020|   -0.986481|
|        3200|   -7.860405|   -7.024183|   -7.479867|   -7.507597|    0.131132|    0.906022|    0.311494|   -0.751040|
+-----------------------------------------------------------------------+
|        File Writing Summary       |              Filename             |
+-----------------------------------------------------------------------+
|SU2 binary restart                 |restart.dat                        |
|Paraview                           |vol_solution.vtu                   |
|Paraview surface                   |surface.vtu                        |
+-----------------------------------------------------------------------+
+--------------------------------------------------------------------------------------------------------------------+
|  Inner_Iter|    rms[Rho]|   rms[RhoU]|   rms[RhoV]|   rms[RhoE]|          CD|          CL|         CMz|   LinSolRes|
+--------------------------------------------------------------------------------------------------------------------+
|        3225|   -7.845924|   -7.016443|   -7.458222|   -7.486966|    0.130459|    0.908074|    0.311458|   -0.749363|
|        3250|   -7.826480|   -7.012275|   -7.464041|   -7.473060|    0.129803|    0.910295|    0.311660|   -0.724630|
|        3275|   -7.839873|   -7.011870|   -7.476852|   -7.487021|    0.129174|    0.912619|    0.311777|   -0.722291|
|        3300|   -7.849017|   -7.004126|   -7.489269|   -7.493571|    0.128442|    0.915407|    0.312071|   -0.653696|
+-----------------------------------------------------------------------+
|        File Writing Summary       |              Filename             |
+-----------------------------------------------------------------------+
|SU2 binary restart                 |restart.dat                        |
|Paraview                           |vol_solution.vtu                   |
|Paraview surface                   |surface.vtu                        |
+-----------------------------------------------------------------------+
+--------------------------------------------------------------------------------------------------------------------+
|  Inner_Iter|    rms[Rho]|   rms[RhoU]|   rms[RhoV]|   rms[RhoE]|          CD|          CL|         CMz|   LinSolRes|
+--------------------------------------------------------------------------------------------------------------------+
|        3325|   -7.838195|   -7.005643|   -7.464069|   -7.481080|    0.127564|    0.920557|    0.312924|   -0.938313|
|        3350|   -7.830478|   -7.001860|   -7.451049|   -7.480179|    0.126735|    0.923572|    0.313180|   -0.751100|
|        3375|   -7.827848|   -6.996152|   -7.444792|   -7.473743|    0.125977|    0.927051|    0.313560|   -0.670617|
|        3400|   -7.819150|   -6.998168|   -7.476310|   -7.461898|    0.124781|    0.931270|    0.313842|   -0.562413|
+-----------------------------------------------------------------------+
|        File Writing Summary       |              Filename             |
+-----------------------------------------------------------------------+
|SU2 binary restart                 |restart.dat                        |
|Paraview                           |vol_solution.vtu                   |
|Paraview surface                   |surface.vtu                        |
+-----------------------------------------------------------------------+
+--------------------------------------------------------------------------------------------------------------------+
|  Inner_Iter|    rms[Rho]|   rms[RhoU]|   rms[RhoV]|   rms[RhoE]|          CD|          CL|         CMz|   LinSolRes|
+--------------------------------------------------------------------------------------------------------------------+
|        3425|   -7.835774|   -6.995088|   -7.487058|   -7.483958|    0.124035|    0.934260|    0.314177|   -0.728461|
|        3450|   -7.841995|   -6.993236|   -7.477928|   -7.488840|    0.123348|    0.936874|    0.314366|   -0.738124|
|        3475|   -7.822142|   -6.987583|   -7.465425|   -7.468194|    0.122795|    0.939619|    0.314781|   -0.743886|
|        3500|   -7.824835|   -6.983721|   -7.453164|   -7.469722|    0.122128|    0.942232|    0.314986|   -0.743294|
+-----------------------------------------------------------------------+
|        File Writing Summary       |              Filename             |
+-----------------------------------------------------------------------+
|SU2 binary restart                 |restart.dat                        |
|Paraview                           |vol_solution.vtu                   |
|Paraview surface                   |surface.vtu                        |
+-----------------------------------------------------------------------+
+--------------------------------------------------------------------------------------------------------------------+
|  Inner_Iter|    rms[Rho]|   rms[RhoU]|   rms[RhoV]|   rms[RhoE]|          CD|          CL|         CMz|   LinSolRes|
+--------------------------------------------------------------------------------------------------------------------+
|        3525|   -7.808535|   -6.979041|   -7.446653|   -7.454483|    0.121435|    0.945039|    0.315265|   -0.725103|
|        3550|   -7.812298|   -6.979991|   -7.444401|   -7.457640|    0.120648|    0.948190|    0.315477|   -0.663970|
|        3575|   -7.807667|   -6.977091|   -7.450547|   -7.457795|    0.119628|    0.952886|    0.316123|   -0.731284|
|        3600|   -7.819422|   -6.974899|   -7.459284|   -7.468717|    0.118951|    0.955293|    0.316228|   -0.736998|
+-----------------------------------------------------------------------+
|        File Writing Summary       |              Filename             |
+-----------------------------------------------------------------------+
|SU2 binary restart                 |restart.dat                        |
|Paraview                           |vol_solution.vtu                   |
|Paraview surface                   |surface.vtu                        |
+-----------------------------------------------------------------------+
+--------------------------------------------------------------------------------------------------------------------+
|  Inner_Iter|    rms[Rho]|   rms[RhoU]|   rms[RhoV]|   rms[RhoE]|          CD|          CL|         CMz|   LinSolRes|
+--------------------------------------------------------------------------------------------------------------------+
|        3625|   -7.808229|   -6.969995|   -7.444093|   -7.458511|    0.118411|    0.958370|    0.316810|   -0.738107|
|        3650|   -7.786394|   -6.970506|   -7.435083|   -7.431177|    0.117232|    0.962964|    0.317077|   -0.635530|
|        3675|   -7.795318|   -6.969140|   -7.445302|   -7.444130|    0.116340|    0.965911|    0.317197|   -0.734931|
|        3700|   -7.801739|   -6.965901|   -7.452646|   -7.448377|    0.115732|    0.968654|    0.317536|   -0.720968|
+-----------------------------------------------------------------------+
|        File Writing Summary       |              Filename             |
+-----------------------------------------------------------------------+
|SU2 binary restart                 |restart.dat                        |
|Paraview                           |vol_solution.vtu                   |
|Paraview surface                   |surface.vtu                        |
+-----------------------------------------------------------------------+
+--------------------------------------------------------------------------------------------------------------------+
|  Inner_Iter|    rms[Rho]|   rms[RhoU]|   rms[RhoV]|   rms[RhoE]|          CD|          CL|         CMz|   LinSolRes|
+--------------------------------------------------------------------------------------------------------------------+
|        3725|   -7.803293|   -6.961401|   -7.446894|   -7.449098|    0.115112|    0.971703|    0.317952|   -0.729201|
|        3750|   -7.798593|   -6.961948|   -7.438044|   -7.441893|    0.114474|    0.974493|    0.318181|   -0.750163|
|        3775|   -7.785698|   -6.959713|   -7.414221|   -7.434897|    0.113515|    0.979991|    0.319085|   -0.638433|
|        3800|   -7.828162|   -6.956874|   -7.425383|   -7.493852|    0.112277|    0.983866|    0.319130|   -0.965819|
+-----------------------------------------------------------------------+
|        File Writing Summary       |              Filename             |
+-----------------------------------------------------------------------+
|SU2 binary restart                 |restart.dat                        |
|Paraview                           |vol_solution.vtu                   |
|Paraview surface                   |surface.vtu                        |
+-----------------------------------------------------------------------+
+--------------------------------------------------------------------------------------------------------------------+
|  Inner_Iter|    rms[Rho]|   rms[RhoU]|   rms[RhoV]|   rms[RhoE]|          CD|          CL|         CMz|   LinSolRes|
+--------------------------------------------------------------------------------------------------------------------+
|        3825|   -7.825797|   -6.955025|   -7.434645|   -7.490745|    0.111682|    0.987064|    0.319593|   -0.873790|
|        3850|   -7.787724|   -6.950059|   -7.432199|   -7.435396|    0.110971|    0.989633|    0.319682|   -0.729208|
|        3875|   -7.786341|   -6.945432|   -7.428313|   -7.434732|    0.110329|    0.992690|    0.320147|   -0.735579|
|        3900|   -7.782413|   -6.951001|   -7.431518|   -7.429501|    0.109756|    0.995973|    0.320597|   -0.747436|
+-----------------------------------------------------------------------+
|        File Writing Summary       |              Filename             |
+-----------------------------------------------------------------------+
|SU2 binary restart                 |restart.dat                        |
|Paraview                           |vol_solution.vtu                   |
|Paraview surface                   |surface.vtu                        |
+-----------------------------------------------------------------------+
+--------------------------------------------------------------------------------------------------------------------+
|  Inner_Iter|    rms[Rho]|   rms[RhoU]|   rms[RhoV]|   rms[RhoE]|          CD|          CL|         CMz|   LinSolRes|
+--------------------------------------------------------------------------------------------------------------------+
|        3925|   -7.780551|   -6.945829|   -7.422353|   -7.431194|    0.108989|    0.998927|    0.320802|   -0.734428|
|        3950|   -7.776919|   -6.948699|   -7.413179|   -7.427154|    0.108360|    1.002192|    0.321223|   -0.746412|
|        3975|   -7.773728|   -6.944001|   -7.416177|   -7.426013|    0.107688|    1.005181|    0.321536|   -0.738215|
|        4000|   -7.820207|   -6.943328|   -7.431503|   -7.487522|    0.106996|    1.008374|    0.321911|   -0.706489|
+-----------------------------------------------------------------------+
|        File Writing Summary       |              Filename             |
+-----------------------------------------------------------------------+
|SU2 binary restart                 |restart.dat                        |
|Paraview                           |vol_solution.vtu                   |
|Paraview surface                   |surface.vtu                        |
+-----------------------------------------------------------------------+
+--------------------------------------------------------------------------------------------------------------------+
|  Inner_Iter|    rms[Rho]|   rms[RhoU]|   rms[RhoV]|   rms[RhoE]|          CD|          CL|         CMz|   LinSolRes|
+--------------------------------------------------------------------------------------------------------------------+
|        4025|   -7.820087|   -6.942782|   -7.434450|   -7.485673|    0.106370|    1.011691|    0.322342|   -0.706808|
|        4050|   -7.783256|   -6.944902|   -7.424260|   -7.434889|    0.105694|    1.014687|    0.322611|   -0.742694|
|        4075|   -7.775608|   -6.943182|   -7.423652|   -7.428749|    0.105047|    1.017729|    0.322987|   -0.747330|
|        4100|   -7.777026|   -6.943224|   -7.424303|   -7.430422|    0.104410|    1.020964|    0.323400|   -0.997388|
+-----------------------------------------------------------------------+
|        File Writing Summary       |              Filename             |
+-----------------------------------------------------------------------+
|SU2 binary restart                 |restart.dat                        |
|Paraview                           |vol_solution.vtu                   |
|Paraview surface                   |surface.vtu                        |
+-----------------------------------------------------------------------+
+--------------------------------------------------------------------------------------------------------------------+
|  Inner_Iter|    rms[Rho]|   rms[RhoU]|   rms[RhoV]|   rms[RhoE]|          CD|          CL|         CMz|   LinSolRes|
+--------------------------------------------------------------------------------------------------------------------+
|        4125|   -7.820863|   -6.942551|   -7.433401|   -7.488042|    0.103732|    1.024096|    0.323714|   -0.876940|
|        4150|   -7.779755|   -6.942544|   -7.424937|   -7.431650|    0.103040|    1.027258|    0.324043|   -0.741912|
|        4175|   -7.773540|   -6.940987|   -7.424574|   -7.426702|    0.102415|    1.030393|    0.324454|   -0.744994|
|        4200|   -7.763791|   -6.943400|   -7.417380|   -7.410861|    0.101268|    1.036813|    0.325340|   -0.578307|
+-----------------------------------------------------------------------+
|        File Writing Summary       |              Filename             |
+-----------------------------------------------------------------------+
|SU2 binary restart                 |restart.dat                        |
|Paraview                           |vol_solution.vtu                   |
|Paraview surface                   |surface.vtu                        |
+-----------------------------------------------------------------------+
+--------------------------------------------------------------------------------------------------------------------+
|  Inner_Iter|    rms[Rho]|   rms[RhoU]|   rms[RhoV]|   rms[RhoE]|          CD|          CL|         CMz|   LinSolRes|
+--------------------------------------------------------------------------------------------------------------------+
|        4225|   -7.780761|   -6.946640|   -7.426502|   -7.433399|    0.100242|    1.040737|    0.325616|   -1.000467|
|        4250|   -7.779885|   -6.945402|   -7.426156|   -7.432051|    0.099604|    1.044033|    0.326037|   -0.740298|
|        4275|   -7.774207|   -6.942706|   -7.424960|   -7.426252|    0.098976|    1.047145|    0.326385|   -0.733648|
|        4300|   -7.819947|   -6.938068|   -7.434639|   -7.480850|    0.098287|    1.050260|    0.326700|   -0.881544|
+-----------------------------------------------------------------------+
|        File Writing Summary       |              Filename             |
+-----------------------------------------------------------------------+
|SU2 binary restart                 |restart.dat                        |
|Paraview                           |vol_solution.vtu                   |
|Paraview surface                   |surface.vtu                        |
+-----------------------------------------------------------------------+
+--------------------------------------------------------------------------------------------------------------------+
|  Inner_Iter|    rms[Rho]|   rms[RhoU]|   rms[RhoV]|   rms[RhoE]|          CD|          CL|         CMz|   LinSolRes|
+--------------------------------------------------------------------------------------------------------------------+
|        4325|   -7.778493|   -6.937396|   -7.423232|   -7.428725|    0.097678|    1.053531|    0.327126|   -0.750304|
|        4350|   -7.772823|   -6.941002|   -7.412034|   -7.427383|    0.096733|    1.059607|    0.328124|   -0.674237|
|        4375|   -7.763689|   -6.938970|   -7.407013|   -7.417056|    0.095750|    1.063430|    0.328324|   -0.746002|
|        4400|   -7.776560|   -6.938722|   -7.413324|   -7.429995|    0.095139|    1.066595|    0.328755|   -0.748932|
+-----------------------------------------------------------------------+
|        File Writing Summary       |              Filename             |
+-----------------------------------------------------------------------+
|SU2 binary restart                 |restart.dat                        |
|Paraview                           |vol_solution.vtu                   |
|Paraview surface                   |surface.vtu                        |
+-----------------------------------------------------------------------+
+--------------------------------------------------------------------------------------------------------------------+
|  Inner_Iter|    rms[Rho]|   rms[RhoU]|   rms[RhoV]|   rms[RhoE]|          CD|          CL|         CMz|   LinSolRes|
+--------------------------------------------------------------------------------------------------------------------+
|        4425|   -7.762010|   -6.940964|   -7.405143|   -7.413121|    0.094267|    1.072782|    0.329799|   -0.586586|
|        4450|   -7.776470|   -6.936131|   -7.423126|   -7.431595|    0.093126|    1.076854|    0.329994|   -0.996310|
|        4475|   -7.783761|   -6.940182|   -7.422326|   -7.436111|    0.092544|    1.080372|    0.330496|   -0.751193|
|        4500|   -7.765853|   -6.937719|   -7.417453|   -7.419034|    0.091938|    1.083573|    0.330907|   -0.737009|
+-----------------------------------------------------------------------+
|        File Writing Summary       |              Filename             |
+-----------------------------------------------------------------------+
|SU2 binary restart                 |restart.dat                        |
|Paraview                           |vol_solution.vtu                   |
|Paraview surface                   |surface.vtu                        |
+-----------------------------------------------------------------------+
+--------------------------------------------------------------------------------------------------------------------+
|  Inner_Iter|    rms[Rho]|   rms[RhoU]|   rms[RhoV]|   rms[RhoE]|          CD|          CL|         CMz|   LinSolRes|
+--------------------------------------------------------------------------------------------------------------------+
|        4525|   -7.760682|   -6.932582|   -7.409177|   -7.410475|    0.091306|    1.086949|    0.331331|   -0.742561|
|        4550|   -7.772582|   -6.931150|   -7.412382|   -7.421142|    0.090660|    1.090235|    0.331701|   -0.754331|
|        4575|   -7.778489|   -6.936134|   -7.401630|   -7.430550|    0.089940|    1.095731|    0.332725|   -0.687517|
|        4600|   -7.759087|   -6.936360|   -7.402256|   -7.412799|    0.088878|    1.100511|    0.333125|   -0.737565|
+-----------------------------------------------------------------------+
|        File Writing Summary       |              Filename             |
+-----------------------------------------------------------------------+
|SU2 binary restart                 |restart.dat                        |
|Paraview                           |vol_solution.vtu                   |
|Paraview surface                   |surface.vtu                        |
+-----------------------------------------------------------------------+
+--------------------------------------------------------------------------------------------------------------------+
|  Inner_Iter|    rms[Rho]|   rms[RhoU]|   rms[RhoV]|   rms[RhoE]|          CD|          CL|         CMz|   LinSolRes|
+--------------------------------------------------------------------------------------------------------------------+
|        4625|   -7.822109|   -6.939976|   -7.425946|   -7.491624|    0.088260|    1.103663|    0.333536|   -0.728878|
|        4650|   -7.778714|   -6.942817|   -7.410252|   -7.434478|    0.087663|    1.108943|    0.334567|   -0.683402|
|        4675|   -7.780746|   -6.940035|   -7.421307|   -7.435750|    0.086509|    1.114052|    0.335030|   -0.739538|
|        4700|   -7.776335|   -6.944687|   -7.424050|   -7.431762|    0.085933|    1.117484|    0.335532|   -0.752992|
+-----------------------------------------------------------------------+
|        File Writing Summary       |              Filename             |
+-----------------------------------------------------------------------+
|SU2 binary restart                 |restart.dat                        |
|Paraview                           |vol_solution.vtu                   |
|Paraview surface                   |surface.vtu                        |
+-----------------------------------------------------------------------+
+--------------------------------------------------------------------------------------------------------------------+
|  Inner_Iter|    rms[Rho]|   rms[RhoU]|   rms[RhoV]|   rms[RhoE]|          CD|          CL|         CMz|   LinSolRes|
+--------------------------------------------------------------------------------------------------------------------+
|        4725|   -7.774611|   -6.946354|   -7.421609|   -7.431971|    0.085391|    1.120840|    0.336037|   -0.740219|
|        4750|   -7.764776|   -6.943399|   -7.412839|   -7.419004|    0.084802|    1.124383|    0.336561|   -0.735022|
|        4775|   -7.775497|   -6.940521|   -7.418984|   -7.426687|    0.084213|    1.127702|    0.336970|   -0.751378|
|        4800|   -7.779231|   -6.940940|   -7.415537|   -7.433708|    0.083620|    1.130955|    0.337416|   -0.741601|
+-----------------------------------------------------------------------+
|        File Writing Summary       |              Filename             |
+-----------------------------------------------------------------------+
|SU2 binary restart                 |restart.dat                        |
|Paraview                           |vol_solution.vtu                   |
|Paraview surface                   |surface.vtu                        |
+-----------------------------------------------------------------------+
+--------------------------------------------------------------------------------------------------------------------+
|  Inner_Iter|    rms[Rho]|   rms[RhoU]|   rms[RhoV]|   rms[RhoE]|          CD|          CL|         CMz|   LinSolRes|
+--------------------------------------------------------------------------------------------------------------------+
|        4825|   -7.773485|   -6.943488|   -7.411234|   -7.428237|    0.083114|    1.134374|    0.337956|   -0.749075|
|        4850|   -7.767174|   -6.941450|   -7.412024|   -7.420703|    0.082541|    1.137861|    0.338494|   -0.730257|
|        4875|   -7.786509|   -6.945069|   -7.422535|   -7.440187|    0.081952|    1.141255|    0.338908|   -0.752500|
|        4900|   -7.826757|   -6.947614|   -7.435213|   -7.498342|    0.081401|    1.144816|    0.339526|   -0.718693|
+-----------------------------------------------------------------------+
|        File Writing Summary       |              Filename             |
+-----------------------------------------------------------------------+
|SU2 binary restart                 |restart.dat                        |
|Paraview                           |vol_solution.vtu                   |
|Paraview surface                   |surface.vtu                        |
+-----------------------------------------------------------------------+
+--------------------------------------------------------------------------------------------------------------------+
|  Inner_Iter|    rms[Rho]|   rms[RhoU]|   rms[RhoV]|   rms[RhoE]|          CD|          CL|         CMz|   LinSolRes|
+--------------------------------------------------------------------------------------------------------------------+
|        4925|   -7.778764|   -6.951201|   -7.420191|   -7.433760|    0.080912|    1.148293|    0.340072|   -0.749073|
|        4950|   -7.778182|   -6.950980|   -7.425026|   -7.433874|    0.080316|    1.151506|    0.340498|   -0.996472|
|        4975|   -7.836042|   -6.955227|   -7.439905|   -7.506175|    0.079815|    1.154896|    0.341038|   -0.729701|
[...]
|  Inner_Iter|    rms[Rho]|   rms[RhoU]|   rms[RhoV]|   rms[RhoE]|          CD|          CL|         CMz|   LinSolRes|
+--------------------------------------------------------------------------------------------------------------------+
|       23625|   -9.299011|   -8.435010|   -9.102899|   -8.955375|    0.049212|    1.468353|    0.401978|   -0.993060|
|       23650|   -9.272006|   -8.426869|   -9.091962|   -8.931271|    0.049187|    1.468423|    0.401994|   -0.992908|
|       23675|   -9.290767|   -8.415448|   -9.074409|   -8.955516|    0.049159|    1.468464|    0.401997|   -0.854266|
|       23700|   -9.268063|   -8.403503|   -9.037408|   -8.926067|    0.049134|    1.468548|    0.402019|   -0.947430|
+-----------------------------------------------------------------------+
|        File Writing Summary       |              Filename             |
+-----------------------------------------------------------------------+
|SU2 binary restart                 |restart.dat                        |
|Paraview                           |vol_solution.vtu                   |
|Paraview surface                   |surface.vtu                        |
+-----------------------------------------------------------------------+
+--------------------------------------------------------------------------------------------------------------------+
|  Inner_Iter|    rms[Rho]|   rms[RhoU]|   rms[RhoV]|   rms[RhoE]|          CD|          CL|         CMz|   LinSolRes|
+--------------------------------------------------------------------------------------------------------------------+
|       23725|   -9.239561|   -8.393657|   -9.027973|   -8.897414|    0.049105|    1.468610|    0.402025|   -0.927460|
|       23750|   -9.220935|   -8.387371|   -9.005125|   -8.870742|    0.049084|    1.468695|    0.402049|   -0.940756|
|       23775|   -9.248459|   -8.380229|   -9.000331|   -8.914247|    0.049056|    1.468787|    0.402066|   -0.901169|
|       23800|   -9.201989|   -8.370607|   -8.977101|   -8.854831|    0.049032|    1.468897|    0.402093|   -0.910007|
+-----------------------------------------------------------------------+
|        File Writing Summary       |              Filename             |
+-----------------------------------------------------------------------+
|SU2 binary restart                 |restart.dat                        |
|Paraview                           |vol_solution.vtu                   |
|Paraview surface                   |surface.vtu                        |
+-----------------------------------------------------------------------+
+--------------------------------------------------------------------------------------------------------------------+
|  Inner_Iter|    rms[Rho]|   rms[RhoU]|   rms[RhoV]|   rms[RhoE]|          CD|          CL|         CMz|   LinSolRes|
+--------------------------------------------------------------------------------------------------------------------+
|       23825|   -9.234251|   -8.363248|   -8.965668|   -8.897917|    0.049007|    1.468997|    0.402113|   -0.883612|
|       23850|   -9.209297|   -8.355926|   -8.948709|   -8.871676|    0.048979|    1.469087|    0.402129|   -0.870764|
|       23875|   -9.199712|   -8.350930|   -8.938544|   -8.865784|    0.048958|    1.469201|    0.402156|   -0.772540|
|       23900|   -9.194099|   -8.344144|   -8.923420|   -8.857037|    0.048933|    1.469312|    0.402178|   -0.989644|
+-----------------------------------------------------------------------+
|        File Writing Summary       |              Filename             |
+-----------------------------------------------------------------------+
|SU2 binary restart                 |restart.dat                        |
|Paraview                           |vol_solution.vtu                   |
|Paraview surface                   |surface.vtu                        |
+-----------------------------------------------------------------------+
+--------------------------------------------------------------------------------------------------------------------+
|  Inner_Iter|    rms[Rho]|   rms[RhoU]|   rms[RhoV]|   rms[RhoE]|          CD|          CL|         CMz|   LinSolRes|
+--------------------------------------------------------------------------------------------------------------------+
|       23925|   -9.195440|   -8.337774|   -8.909996|   -8.862402|    0.048911|    1.469434|    0.402207|   -0.849953|
|       23950|   -9.196361|   -8.331507|   -8.899572|   -8.864652|    0.048888|    1.469556|    0.402233|   -0.844589|
|       23975|   -9.179546|   -8.325834|   -8.880049|   -8.847024|    0.048868|    1.469702|    0.402269|   -0.833401|
|       24000|   -9.169519|   -8.320927|   -8.867673|   -8.835806|    0.048844|    1.469829|    0.402294|   -0.827207|
+-----------------------------------------------------------------------+
|        File Writing Summary       |              Filename             |
+-----------------------------------------------------------------------+
|SU2 binary restart                 |restart.dat                        |
|Paraview                           |vol_solution.vtu                   |
|Paraview surface                   |surface.vtu                        |
+-----------------------------------------------------------------------+
+--------------------------------------------------------------------------------------------------------------------+
|  Inner_Iter|    rms[Rho]|   rms[RhoU]|   rms[RhoV]|   rms[RhoE]|          CD|          CL|         CMz|   LinSolRes|
+--------------------------------------------------------------------------------------------------------------------+
|       24025|   -9.156811|   -8.316617|   -8.856484|   -8.825915|    0.048822|    1.469997|    0.402336|   -0.822730|
|       24050|   -9.157003|   -8.312973|   -8.846851|   -8.825571|    0.048801|    1.470120|    0.402360|   -0.722702|
|       24075|   -9.119605|   -8.309809|   -8.829410|   -8.783327|    0.048780|    1.470300|    0.402406|   -0.960924|
|       24100|   -9.140623|   -8.306454|   -8.831328|   -8.811687|    0.048760|    1.470438|    0.402434|   -0.807753|
+-----------------------------------------------------------------------+
|        File Writing Summary       |              Filename             |
+-----------------------------------------------------------------------+
|SU2 binary restart                 |restart.dat                        |
|Paraview                           |vol_solution.vtu                   |
|Paraview surface                   |surface.vtu                        |
+-----------------------------------------------------------------------+
+--------------------------------------------------------------------------------------------------------------------+
|  Inner_Iter|    rms[Rho]|   rms[RhoU]|   rms[RhoV]|   rms[RhoE]|          CD|          CL|         CMz|   LinSolRes|
+--------------------------------------------------------------------------------------------------------------------+
|       24125|   -9.147253|   -8.304164|   -8.822181|   -8.819280|    0.048743|    1.470605|    0.402478|   -0.794249|
|       24150|   -9.132493|   -8.302162|   -8.814904|   -8.804761|    0.048724|    1.470744|    0.402507|   -0.798300|
|       24175|   -9.132880|   -8.300023|   -8.809234|   -8.805819|    0.048708|    1.470902|    0.402546|   -0.796039|
|       24200|   -9.136633|   -8.298926|   -8.803803|   -8.808897|    0.048691|    1.471069|    0.402585|   -0.793586|
+-----------------------------------------------------------------------+
|        File Writing Summary       |              Filename             |
+-----------------------------------------------------------------------+
|SU2 binary restart                 |restart.dat                        |
|Paraview                           |vol_solution.vtu                   |
|Paraview surface                   |surface.vtu                        |
+-----------------------------------------------------------------------+
+--------------------------------------------------------------------------------------------------------------------+
|  Inner_Iter|    rms[Rho]|   rms[RhoU]|   rms[RhoV]|   rms[RhoE]|          CD|          CL|         CMz|   LinSolRes|
+--------------------------------------------------------------------------------------------------------------------+
|       24225|   -9.110890|   -8.298241|   -8.788139|   -8.773403|    0.048674|    1.471267|    0.402635|   -0.526154|
|       24250|   -9.114748|   -8.299473|   -8.794982|   -8.786025|    0.048653|    1.471416|    0.402664|   -0.787204|
|       24275|   -9.126557|   -8.299594|   -8.797103|   -8.798979|    0.048639|    1.471569|    0.402701|   -0.785147|
|       24300|   -9.133813|   -8.301564|   -8.789532|   -8.806703|    0.048626|    1.471755|    0.402748|   -0.636865|
+-----------------------------------------------------------------------+
|        File Writing Summary       |              Filename             |
+-----------------------------------------------------------------------+
|SU2 binary restart                 |restart.dat                        |
|Paraview                           |vol_solution.vtu                   |
|Paraview surface                   |surface.vtu                        |
+-----------------------------------------------------------------------+
+--------------------------------------------------------------------------------------------------------------------+
|  Inner_Iter|    rms[Rho]|   rms[RhoU]|   rms[RhoV]|   rms[RhoE]|          CD|          CL|         CMz|   LinSolRes|
+--------------------------------------------------------------------------------------------------------------------+
|       24325|   -9.114328|   -8.303003|   -8.788679|   -8.786474|    0.048607|    1.471928|    0.402784|   -0.778598|
|       24350|   -9.125734|   -8.303334|   -8.788997|   -8.796185|    0.048594|    1.472090|    0.402824|   -0.778989|
|       24375|   -9.125573|   -8.305215|   -8.785918|   -8.796101|    0.048584|    1.472252|    0.402864|   -0.775235|
|       24400|   -9.151332|   -8.307981|   -8.788477|   -8.835725|    0.048570|    1.472411|    0.402900|   -0.748222|
+-----------------------------------------------------------------------+
|        File Writing Summary       |              Filename             |
+-----------------------------------------------------------------------+
|SU2 binary restart                 |restart.dat                        |
|Paraview                           |vol_solution.vtu                   |
|Paraview surface                   |surface.vtu                        |
+-----------------------------------------------------------------------+
+--------------------------------------------------------------------------------------------------------------------+
|  Inner_Iter|    rms[Rho]|   rms[RhoU]|   rms[RhoV]|   rms[RhoE]|          CD|          CL|         CMz|   LinSolRes|
+--------------------------------------------------------------------------------------------------------------------+
|       24425|   -9.126193|   -8.309279|   -8.783025|   -8.795709|    0.048559|    1.472580|    0.402941|   -0.770003|
|       24450|   -9.097851|   -8.312949|   -8.767867|   -8.751060|    0.048549|    1.472788|    0.402994|   -0.990640|
|       24475|   -9.121454|   -8.318035|   -8.781675|   -8.792011|    0.048535|    1.472936|    0.403024|   -0.766961|
|       24500|   -9.129872|   -8.320899|   -8.784772|   -8.800496|    0.048526|    1.473097|    0.403065|   -0.765279|
+-----------------------------------------------------------------------+
|        File Writing Summary       |              Filename             |
+-----------------------------------------------------------------------+
|SU2 binary restart                 |restart.dat                        |
|Paraview                           |vol_solution.vtu                   |
|Paraview surface                   |surface.vtu                        |
+-----------------------------------------------------------------------+
+--------------------------------------------------------------------------------------------------------------------+
|  Inner_Iter|    rms[Rho]|   rms[RhoU]|   rms[RhoV]|   rms[RhoE]|          CD|          CL|         CMz|   LinSolRes|
+--------------------------------------------------------------------------------------------------------------------+
|       24525|   -9.138991|   -8.325226|   -8.787850|   -8.809788|    0.048518|    1.473256|    0.403103|   -0.763474|
|       24550|   -9.175723|   -8.333226|   -8.792334|   -8.858772|    0.048511|    1.473470|    0.403158|   -0.721370|
|       24575|   -9.145253|   -8.338706|   -8.794235|   -8.814346|    0.048497|    1.473667|    0.403200|   -0.762370|
|       24600|   -9.147153|   -8.344211|   -8.800577|   -8.818187|    0.048489|    1.473816|    0.403235|   -0.761958|
+-----------------------------------------------------------------------+
|        File Writing Summary       |              Filename             |
+-----------------------------------------------------------------------+
|SU2 binary restart                 |restart.dat                        |
|Paraview                           |vol_solution.vtu                   |
|Paraview surface                   |surface.vtu                        |
+-----------------------------------------------------------------------+
+--------------------------------------------------------------------------------------------------------------------+
|  Inner_Iter|    rms[Rho]|   rms[RhoU]|   rms[RhoV]|   rms[RhoE]|          CD|          CL|         CMz|   LinSolRes|
+--------------------------------------------------------------------------------------------------------------------+
|       24625|   -9.157421|   -8.351768|   -8.801902|   -8.829704|    0.048484|    1.473981|    0.403277|   -0.757026|
|       24650|   -9.157200|   -8.355885|   -8.803710|   -8.828504|    0.048478|    1.474134|    0.403312|   -1.018073|
|       24675|   -9.163062|   -8.360075|   -8.808798|   -8.832775|    0.048473|    1.474285|    0.403349|   -0.758989|
|       24700|   -9.169636|   -8.366442|   -8.811861|   -8.839425|    0.048469|    1.474433|    0.403385|   -0.758933|
+-----------------------------------------------------------------------+
|        File Writing Summary       |              Filename             |
+-----------------------------------------------------------------------+
|SU2 binary restart                 |restart.dat                        |
|Paraview                           |vol_solution.vtu                   |
|Paraview surface                   |surface.vtu                        |
+-----------------------------------------------------------------------+
+--------------------------------------------------------------------------------------------------------------------+
|  Inner_Iter|    rms[Rho]|   rms[RhoU]|   rms[RhoV]|   rms[RhoE]|          CD|          CL|         CMz|   LinSolRes|
+--------------------------------------------------------------------------------------------------------------------+
|       24725|   -9.182006|   -8.376012|   -8.811176|   -8.852987|    0.048466|    1.474613|    0.403430|   -0.626411|
|       24750|   -9.172936|   -8.385098|   -8.820899|   -8.843199|    0.048460|    1.474783|    0.403468|   -0.753476|
|       24775|   -9.217883|   -8.396024|   -8.834946|   -8.897133|    0.048460|    1.474969|    0.403518|   -0.635206|
|       24800|   -9.195901|   -8.404338|   -8.836098|   -8.867429|    0.048456|    1.475104|    0.403547|   -0.753340|
+-----------------------------------------------------------------------+
|        File Writing Summary       |              Filename             |
+-----------------------------------------------------------------------+
|SU2 binary restart                 |restart.dat                        |
|Paraview                           |vol_solution.vtu                   |
|Paraview surface                   |surface.vtu                        |
+-----------------------------------------------------------------------+
+--------------------------------------------------------------------------------------------------------------------+
|  Inner_Iter|    rms[Rho]|   rms[RhoU]|   rms[RhoV]|   rms[RhoE]|          CD|          CL|         CMz|   LinSolRes|
+--------------------------------------------------------------------------------------------------------------------+
|       24825|   -9.199814|   -8.411546|   -8.843566|   -8.871289|    0.048455|    1.475243|    0.403582|   -0.752554|
|       24850|   -9.211078|   -8.418735|   -8.849555|   -8.881216|    0.048456|    1.475382|    0.403616|   -0.753655|
|       24875|   -9.217449|   -8.427480|   -8.856551|   -8.888105|    0.048455|    1.475518|    0.403649|   -0.754251|
|       24900|   -9.222305|   -8.437369|   -8.861235|   -8.892681|    0.048457|    1.475652|    0.403683|   -0.752214|
+-----------------------------------------------------------------------+
|        File Writing Summary       |              Filename             |
+-----------------------------------------------------------------------+
|SU2 binary restart                 |restart.dat                        |
|Paraview                           |vol_solution.vtu                   |
|Paraview surface                   |surface.vtu                        |
+-----------------------------------------------------------------------+
+--------------------------------------------------------------------------------------------------------------------+
|  Inner_Iter|    rms[Rho]|   rms[RhoU]|   rms[RhoV]|   rms[RhoE]|          CD|          CL|         CMz|   LinSolRes|
+--------------------------------------------------------------------------------------------------------------------+
|       24925|   -9.233137|   -8.446408|   -8.869836|   -8.902829|    0.048458|    1.475782|    0.403714|   -0.753771|
|       24950|   -9.242303|   -8.456666|   -8.879316|   -8.913138|    0.048460|    1.475909|    0.403746|   -0.754459|
|       24975|   -9.252007|   -8.467940|   -8.888220|   -8.922466|    0.048463|    1.476039|    0.403779|   -0.754816|
|       24999|   -9.263381|   -8.478808|   -8.898945|   -8.933676|    0.048466|    1.476166|    0.403810|   -0.756651|

----------------------------- Solver Exit -------------------------------

Maximum number of iterations reached (ITER = 25000) before convergence.
+-----------------------------------------------------------------------+
|      Convergence Field     |     Value    |   Criterion  |  Converged |
+-----------------------------------------------------------------------+
|                  Cauchy[CL]|   4.17148e-06|       < 5e-07|          No|
+-----------------------------------------------------------------------+
-------------------------------------------------------------------------
+-----------------------------------------------------------------------+
|        File Writing Summary       |              Filename             |
+-----------------------------------------------------------------------+
|SU2 binary restart                 |restart.dat                        |
|Paraview                           |vol_solution.vtu                   |
|Paraview surface                   |surface.vtu                        |
+-----------------------------------------------------------------------+

------------------------- Solver Postprocessing -------------------------
Deleted CNumerics container.
Deleted CIntegration container.
Deleted CSolver container.
Deleted CIteration container.
Deleted CInterface container.
Deleted CGeometry container.
Deleted CFreeFormDefBox class.
Deleted CSurfaceMovement class.
Deleted CVolumetricMovement class.
Deleted CConfig container.
Deleted nInst container.
Deleted COutput class.
-------------------------------------------------------------------------

------------------------- Exit Success (SU2_CFD) ------------------------

