WARNING: The current SST-1994m model is inconsistent with literature. We recommend using the SST-2003m model.
In SU2 v8 the 2003m model will become default, and the inconsistency will be fixed.

-------------------------------------------------------------------------
|    ___ _   _ ___                                                      |
|   / __| | | |_  )   Release 7.4.0 "Blackbird"                         |
|   \__ \ |_| |/ /                                                      |
|   |___/\___//___|   Suite (Computational Fluid Dynamics Code)         |
|                                                                       |
-------------------------------------------------------------------------
| SU2 Project Website: https://su2code.github.io                        |
|                                                                       |
| The SU2 Project is maintained by the SU2 Foundation                   |
| (http://su2foundation.org)                                            |
-------------------------------------------------------------------------
| Copyright 2012-2022, SU2 Contributors                                 |
|                                                                       |
| SU2 is free software; you can redistribute it and/or                  |
| modify it under the terms of the GNU Lesser General Public            |
| License as published by the Free Software Foundation; either          |
| version 2.1 of the License, or (at your option) any later version.    |
|                                                                       |
| SU2 is distributed in the hope that it will be useful,                |
| but WITHOUT ANY WARRANTY; without even the implied warranty of        |
| MERCHANTABILITY or FITNESS FOR A PARTICULAR PURPOSE. See the GNU      |
| Lesser General Public License for more details.                       |
|                                                                       |
| You should have received a copy of the GNU Lesser General Public      |
| License along with SU2. If not, see <http://www.gnu.org/licenses/>.   |
-------------------------------------------------------------------------
WARNING: The current SST-1994m model is inconsistent with literature. We recommend using the SST-2003m model.
In SU2 v8 the 2003m model will become default, and the inconsistency will be fixed.

Parsing config file for zone 0
WARNING: The current SST-1994m model is inconsistent with literature. We recommend using the SST-2003m model.
In SU2 v8 the 2003m model will become default, and the inconsistency will be fixed.

----------------- Physical Case Definition ( Zone 0 ) -------------------
Compressible RANS equations.
Turbulence model: Menter's k-omega SST-1994m with no production modification.
Hybrid RANS/LES: No Hybrid RANS/LES
Mach number: 0.21.
Angle of attack (AoA): -5 deg, and angle of sideslip (AoS): 0 deg.
Reynolds number: 1.06749e+07. Reference length 2.62.
No restart solution, use the values at infinity (freestream).
Non-Dimensional simulation (V=Mach, Rho=1.0, T=1.0 at the farfield).
The reference area is 2.62 m^2.
The semi-span will be computed using the max y(3D) value.
The reference length is 2.62 m.
Reference origin for moment evaluation is (0, 0, 0).
Surface(s) where the force coefficients are evaluated: wall.

Surface(s) plotted in the output file: wall.
Input mesh file name: su2meshEx.su2

--------------- Space Numerical Integration ( Zone 0 ) ------------------
Roe (with entropy fix = 1e-05) solver for the flow inviscid terms.
Standard Roe without low-dissipation function.
Second order integration in space, with slope limiter.
Van Albada slope-limiting method implemented by edges.
Scalar upwind solver for the turbulence model.
First order integration in space.
Average of gradients with correction (viscous flow terms).
Average of gradients with correction (viscous turbulence terms).
Gradient for upwind reconstruction: Green-Gauss.
Gradient for viscous and source terms: Green-Gauss.

--------------- Time Numerical Integration  ( Zone 0 ) ------------------
Local time stepping (steady state simulation).
Euler implicit method for the flow equations.
FGMRES is used for solving the linear system.
Using a ILU(0) preconditioning.
Convergence criteria of the linear solver: 0.2.
Max number of linear iterations: 4.
CFL adaptation. Factor down: 0.1, factor up: 1.2,
                lower limit: 25, upper limit: 1000,
                acceptable linear residual: 0.001.
Courant-Friedrichs-Lewy number:       25
Euler implicit time integration for the turbulence model.

------------------ Convergence Criteria  ( Zone 0 ) ---------------------
Maximum number of solver subiterations: 25000.
Begin convergence monitoring at iteration 10.
Residual minimum value: 1e-11.5.
Cauchy series min. value: 5e-07.
Number of Cauchy elements: 500.
Begin windowed time average at iteration 0.

-------------------- Output Information ( Zone 0 ) ----------------------
File writing frequency: 
+------------------------------------+
|                     File| Frequency|
+------------------------------------+
|                  RESTART|       100|
|                 PARAVIEW|       100|
|         SURFACE_PARAVIEW|       100|
+------------------------------------+
Writing the convergence history file every 1 inner iterations.
Writing the screen convergence history every 25 inner iterations.
The tabular file format is CSV (.csv).
Convergence history file name: history.
Forces breakdown file name: forces_breakdown.dat.
Surface file name: surface.
Volume file name: vol_solution.
Restart file name: restart.dat.

------------- Config File Boundary Information ( Zone 0 ) ---------------
+-----------------------------------------------------------------------+
|                        Marker Type|                        Marker Name|
+-----------------------------------------------------------------------+
|                          Far-field|                          far-field|
+-----------------------------------------------------------------------+
|                     Heat flux wall|                               wall|
+-----------------------------------------------------------------------+

-------------------- Output Preprocessing ( Zone 0 ) --------------------

WARNING: SURFACE_PRESSURE_DROP can only be computed for at least 2 surfaces (outlet, inlet, ...)

  Info: Ignoring the following screen output fields:
  RMS_NU_TILDE
Screen output fields: INNER_ITER, RMS_DENSITY, RMS_MOMENTUM-X, RMS_MOMENTUM-Y, RMS_ENERGY, DRAG, LIFT, MOMENT_Z, LINSOL_RESIDUAL
History output group(s): ITER, RMS_RES, AERO_COEFF
Convergence field(s): LIFT
Warning: No (valid) fields chosen for time convergence monitoring. Time convergence monitoring inactive.
Volume output fields: COORDINATES, SOLUTION, PRIMITIVE

------------------- Geometry Preprocessing ( Zone 0 ) -------------------
Two dimensional problem.
66015 grid points before partitioning.
65610 volume elements before partitioning.
2 surface markers.
405 boundary elements in index 0 (Marker = far-field).
405 boundary elements in index 1 (Marker = wall).
Executing the partitioning functions.
Building the graph adjacency structure.
Calling ParMETIS... graph partitioning complete (888 edge cuts).
Distributing ParMETIS coloring.
Rebalancing vertices.
Rebalancing volume element connectivity.
Rebalancing markers and surface elements.
67791 vertices including ghost points. 
66494 interior elements including halo cells. 
66494 quadrilaterals.
Establishing MPI communication patterns.
Setting point connectivity.
Renumbering points (Reverse Cuthill McKee Ordering).
Recomputing point connectivity.
Setting element connectivity.
Checking the numerical grid orientation.
All volume elements are correctly orientend.
All surface elements are correctly orientend.
Identifying edges and vertices.
Setting the control volume structure.
Area of the computational grid: 177681.
Searching for the closest normal neighbors to the surfaces.
Storing a mapping from global to local point index.
Compute the surface curvature.
Max K: 1084.38. Mean K: 3.59037. Standard deviation K: 49.7608.
Checking for periodicity.
Computing mesh quality statistics for the dual control volumes.
+--------------------------------------------------------------+
|           Mesh Quality Metric|        Minimum|        Maximum|
+--------------------------------------------------------------+
|    Orthogonality Angle (deg.)|         82.757|             90|
|     CV Face Area Aspect Ratio|        1.00372|        11629.9|
|           CV Sub-Volume Ratio|              1|        2.23945|
+--------------------------------------------------------------+
Finding max control volume width.
Communicating number of neighbors.
Wetted area = 5.32649 m.
Area projection in the x-plane = 0.29702 m, y-plane = 2.61984 m.
Max. coordinate in the x-direction = 2.62 m, y-direction = 0.165086 m.
Min. coordinate in the x-direction = 0 m, y-direction = -0.119236 m.
Computing wall distances.

-------------------- Solver Preprocessing ( Zone 0 ) --------------------
Viscous flow: Computing pressure using the ideal gas law
based on the free-stream temperature and a density computed
from the Reynolds number.
Force coefficients computed using free-stream values.

-- Models:
+------------------------------------------------------------------------------+
|          Viscosity Model|        Conductivity Model|              Fluid Model|
+------------------------------------------------------------------------------+
|               SUTHERLAND|          CONSTANT_PRANDTL|             STANDARD_AIR|
+------------------------------------------------------------------------------+
-- Fluid properties:
+------------------------------------------------------------------------------+
|                  Name|    Dim. value|    Ref. value|      Unit|Non-dim. value|
+------------------------------------------------------------------------------+
|        Ref. Viscosity|     1.716e-05|       334.862|   N.s/m^2|   5.12451e-08|
|      Sutherland Temp.|        273.15|       275.159|         K|      0.992697|
|     Sutherland Const.|         110.4|       275.159|         K|      0.401222|
+------------------------------------------------------------------------------+
|        Prandtl (Lam.)|             -|             -|         -|          0.72|
|       Prandtl (Turb.)|             -|             -|         -|           0.9|
+------------------------------------------------------------------------------+
|          Gas Constant|       287.058|       401.881|  N.m/kg.K|      0.714286|
|      Spec. Heat Ratio|             -|             -|         -|           1.4|
+------------------------------------------------------------------------------+
-- Initial and free-stream conditions:
+------------------------------------------------------------------------------+
|                  Name|    Dim. value|    Ref. value|      Unit|Non-dim. value|
+------------------------------------------------------------------------------+
|       Static Pressure|       79538.7|        111354|        Pa|      0.714286|
|               Density|       1.00699|       1.00699|    kg/m^3|             1|
|           Temperature|       275.159|       275.159|         K|             1|
|          Total Energy|        199923|        110581|   m^2/s^2|       1.80793|
|            Velocity-X|       69.5672|       332.538|       m/s|      0.209201|
|            Velocity-Y|      -6.08634|       332.538|       m/s|    -0.0183027|
|    Velocity Magnitude|       69.8329|       332.538|       m/s|          0.21|
+------------------------------------------------------------------------------+
|             Viscosity|   1.72593e-05|       334.862|   N.s/m^2|   5.15415e-08|
|          Conductivity|             -|        134575|   W/m^2.K|             -|
|     Turb. Kin. Energy|       18.2874|        110581|   m^2/s^2|   0.000165375|
|     Spec. Dissipation|        106697|       332.538|       1/s|       320.858|
+------------------------------------------------------------------------------+
|           Mach Number|             -|             -|         -|          0.21|
|       Reynolds Number|             -|             -|         -|   1.06749e+07|
+------------------------------------------------------------------------------+
Initialize Jacobian structure (Navier-Stokes). MG level: 0.
Initialize Jacobian structure (SST model).

------------------- Numerics Preprocessing ( Zone 0 ) -------------------

----------------- Integration Preprocessing ( Zone 0 ) ------------------

------------------- Iteration Preprocessing ( Zone 0 ) ------------------
Euler/Navier-Stokes/RANS fluid iteration.

------------------------------ Begin Solver -----------------------------

Simulation Run using the Single-zone Driver
WARNING: SU2 was not compiled for an AVX-capable architecture.
+--------------------------------------------------------------------------------------------------------------------+
|  Inner_Iter|    rms[Rho]|   rms[RhoU]|   rms[RhoV]|   rms[RhoE]|          CD|          CL|         CMz|   LinSolRes|
+--------------------------------------------------------------------------------------------------------------------+
|           0|   -4.426283|  -15.606976|  -15.619836|   -4.024501|    0.696627|   -1.455293|   -0.602635|   -0.804125|
|          25|   -5.098886|   -5.139152|   -5.094620|   -4.705587|   -0.026447|    0.590965|    0.477507|   -0.654540|
|          50|   -5.300838|   -5.338862|   -5.363438|   -4.906894|   -0.023839|    0.203663|    0.302421|   -0.988084|
|          75|   -5.670230|   -5.495511|   -5.828571|   -5.271417|    0.006347|   -0.113593|    0.115308|   -0.572191|
|         100|   -6.166022|   -5.633487|   -5.930602|   -5.767587|    0.036150|   -0.420127|   -0.059970|   -0.686749|
+-----------------------------------------------------------------------+
|        File Writing Summary       |              Filename             |
+-----------------------------------------------------------------------+
|SU2 binary restart                 |restart.dat                        |
|Paraview                           |vol_solution.vtu                   |
|Paraview surface                   |surface.vtu                        |
+-----------------------------------------------------------------------+
+--------------------------------------------------------------------------------------------------------------------+
|  Inner_Iter|    rms[Rho]|   rms[RhoU]|   rms[RhoV]|   rms[RhoE]|          CD|          CL|         CMz|   LinSolRes|
+--------------------------------------------------------------------------------------------------------------------+
|         125|   -6.123167|   -5.910883|   -6.056969|   -5.734488|    0.021097|   -0.200463|    0.029971|   -0.712837|
|         150|   -6.420354|   -6.183330|   -6.428971|   -6.017575|    0.011550|   -0.152649|    0.060022|   -0.627531|
|         175|   -6.735498|   -6.291689|   -6.556361|   -6.337855|    0.013249|   -0.160325|    0.065965|   -0.811381|
|         200|   -6.743812|   -6.436365|   -6.641878|   -6.351757|    0.017241|   -0.222269|    0.034382|   -0.618711|
+-----------------------------------------------------------------------+
|        File Writing Summary       |              Filename             |
+-----------------------------------------------------------------------+
|SU2 binary restart                 |restart.dat                        |
|Paraview                           |vol_solution.vtu                   |
|Paraview surface                   |surface.vtu                        |
+-----------------------------------------------------------------------+
+--------------------------------------------------------------------------------------------------------------------+
|  Inner_Iter|    rms[Rho]|   rms[RhoU]|   rms[RhoV]|   rms[RhoE]|          CD|          CL|         CMz|   LinSolRes|
+--------------------------------------------------------------------------------------------------------------------+
|         225|   -6.943650|   -6.641940|   -6.836171|   -6.557223|    0.018433|   -0.243187|    0.018931|   -0.618769|
|         250|   -7.392920|   -6.805072|   -7.100254|   -7.001870|    0.013177|   -0.203055|    0.040909|   -0.626340|
|         275|   -7.350829|   -6.947262|   -7.217862|   -6.947243|    0.015287|   -0.228587|    0.030187|   -0.708644|
|         300|   -7.311539|   -7.050332|   -7.315611|   -6.916074|    0.014471|   -0.227585|    0.028459|   -0.573826|
+-----------------------------------------------------------------------+
|        File Writing Summary       |              Filename             |
+-----------------------------------------------------------------------+
|SU2 binary restart                 |restart.dat                        |
|Paraview                           |vol_solution.vtu                   |
|Paraview surface                   |surface.vtu                        |
+-----------------------------------------------------------------------+
+--------------------------------------------------------------------------------------------------------------------+
|  Inner_Iter|    rms[Rho]|   rms[RhoU]|   rms[RhoV]|   rms[RhoE]|          CD|          CL|         CMz|   LinSolRes|
+--------------------------------------------------------------------------------------------------------------------+
|         325|   -7.385192|   -7.130474|   -7.384734|   -6.984194|    0.013544|   -0.221627|    0.033601|   -0.661294|
|         350|   -7.495255|   -7.201650|   -7.547717|   -7.094964|    0.014074|   -0.232605|    0.027084|   -0.649078|
|         375|   -7.676621|   -7.238359|   -7.709608|   -7.274411|    0.013021|   -0.224216|    0.032191|   -0.642459|
|         400|   -7.860510|   -7.309098|   -7.717904|   -7.466585|    0.013562|   -0.233351|    0.027342|   -0.701266|
+-----------------------------------------------------------------------+
|        File Writing Summary       |              Filename             |
+-----------------------------------------------------------------------+
|SU2 binary restart                 |restart.dat                        |
|Paraview                           |vol_solution.vtu                   |
|Paraview surface                   |surface.vtu                        |
+-----------------------------------------------------------------------+
+--------------------------------------------------------------------------------------------------------------------+
|  Inner_Iter|    rms[Rho]|   rms[RhoU]|   rms[RhoV]|   rms[RhoE]|          CD|          CL|         CMz|   LinSolRes|
+--------------------------------------------------------------------------------------------------------------------+
|         425|   -8.084836|   -7.359619|   -7.810293|   -7.678102|    0.012678|   -0.227607|    0.030832|   -0.834364|
|         450|   -8.145794|   -7.398725|   -7.967149|   -7.744758|    0.013097|   -0.233654|    0.027602|   -0.803228|
|         475|   -8.140666|   -7.431660|   -8.004539|   -7.726172|    0.012427|   -0.230260|    0.029748|   -0.612194|
|         500|   -8.106072|   -7.416598|   -7.947846|   -7.710137|    0.012632|   -0.234066|    0.027741|   -0.629215|
+-----------------------------------------------------------------------+
|        File Writing Summary       |              Filename             |
+-----------------------------------------------------------------------+
|SU2 binary restart                 |restart.dat                        |
|Paraview                           |vol_solution.vtu                   |
|Paraview surface                   |surface.vtu                        |
+-----------------------------------------------------------------------+
+--------------------------------------------------------------------------------------------------------------------+
|  Inner_Iter|    rms[Rho]|   rms[RhoU]|   rms[RhoV]|   rms[RhoE]|          CD|          CL|         CMz|   LinSolRes|
+--------------------------------------------------------------------------------------------------------------------+
|         525|   -8.158072|   -7.475225|   -7.987709|   -7.760504|    0.012241|   -0.232264|    0.028921|   -0.559922|
|         550|   -8.236812|   -7.499020|   -8.146944|   -7.829814|    0.012270|   -0.234679|    0.027696|   -0.598717|
|         575|   -8.340656|   -7.521293|   -8.284031|   -7.928257|    0.012030|   -0.233761|    0.028346|   -0.705468|
|         600|   -8.412535|   -7.548107|   -8.251485|   -8.010883|    0.012011|   -0.235416|    0.027519|   -0.618499|
+-----------------------------------------------------------------------+
|        File Writing Summary       |              Filename             |
+-----------------------------------------------------------------------+
|SU2 binary restart                 |restart.dat                        |
|Paraview                           |vol_solution.vtu                   |
|Paraview surface                   |surface.vtu                        |
+-----------------------------------------------------------------------+
+--------------------------------------------------------------------------------------------------------------------+
|  Inner_Iter|    rms[Rho]|   rms[RhoU]|   rms[RhoV]|   rms[RhoE]|          CD|          CL|         CMz|   LinSolRes|
+--------------------------------------------------------------------------------------------------------------------+
|         625|   -8.491086|   -7.561439|   -8.308094|   -8.076807|    0.011805|   -0.235022|    0.027882|   -0.779549|
|         650|   -8.547951|   -7.579564|   -8.391024|   -8.150269|    0.011778|   -0.236177|    0.027310|   -0.649379|
|         675|   -8.628446|   -7.601522|   -8.403959|   -8.205431|    0.011614|   -0.236172|    0.027458|   -0.752996|
|         700|   -8.566698|   -7.611506|   -8.415471|   -8.174250|    0.011551|   -0.236960|    0.027082|   -0.629280|
+-----------------------------------------------------------------------+
|        File Writing Summary       |              Filename             |
+-----------------------------------------------------------------------+
|SU2 binary restart                 |restart.dat                        |
|Paraview                           |vol_solution.vtu                   |
|Paraview surface                   |surface.vtu                        |
+-----------------------------------------------------------------------+
+--------------------------------------------------------------------------------------------------------------------+
|  Inner_Iter|    rms[Rho]|   rms[RhoU]|   rms[RhoV]|   rms[RhoE]|          CD|          CL|         CMz|   LinSolRes|
+--------------------------------------------------------------------------------------------------------------------+
|         725|   -8.650538|   -7.629404|   -8.437365|   -8.246017|    0.011448|   -0.237176|    0.027075|   -0.789970|
|         750|   -8.633161|   -7.642203|   -8.465285|   -8.237535|    0.011369|   -0.237548|    0.026910|   -0.843393|
|         775|   -8.697257|   -7.650551|   -8.470407|   -8.304054|    0.011314|   -0.238014|    0.026744|   -0.808257|
|         800|   -8.694129|   -7.661158|   -8.488695|   -8.307238|    0.011233|   -0.238119|    0.026735|   -0.897397|
+-----------------------------------------------------------------------+
|        File Writing Summary       |              Filename             |
+-----------------------------------------------------------------------+
|SU2 binary restart                 |restart.dat                        |
|Paraview                           |vol_solution.vtu                   |
|Paraview surface                   |surface.vtu                        |
+-----------------------------------------------------------------------+
+--------------------------------------------------------------------------------------------------------------------+
|  Inner_Iter|    rms[Rho]|   rms[RhoU]|   rms[RhoV]|   rms[RhoE]|          CD|          CL|         CMz|   LinSolRes|
+--------------------------------------------------------------------------------------------------------------------+
|         825|   -8.717229|   -7.672611|   -8.499025|   -8.338362|    0.011185|   -0.238596|    0.026525|   -0.925071|
|         850|   -8.640907|   -7.681528|   -8.475244|   -8.254774|    0.011108|   -0.238831|    0.026480|   -0.654219|
|         875|   -8.728027|   -7.691356|   -8.539806|   -8.354954|    0.011041|   -0.239141|    0.026346|   -0.907267|
|         900|   -8.750886|   -7.700929|   -8.546232|   -8.378962|    0.010996|   -0.239494|    0.026218|   -0.911267|
+-----------------------------------------------------------------------+
|        File Writing Summary       |              Filename             |
+-----------------------------------------------------------------------+
|SU2 binary restart                 |restart.dat                        |
|Paraview                           |vol_solution.vtu                   |
|Paraview surface                   |surface.vtu                        |
+-----------------------------------------------------------------------+
+--------------------------------------------------------------------------------------------------------------------+
|  Inner_Iter|    rms[Rho]|   rms[RhoU]|   rms[RhoV]|   rms[RhoE]|          CD|          CL|         CMz|   LinSolRes|
+--------------------------------------------------------------------------------------------------------------------+
|         925|   -8.767560|   -7.709366|   -8.566378|   -8.393642|    0.010927|   -0.239658|    0.026179|   -0.929754|
|         950|   -8.758007|   -7.716028|   -8.583629|   -8.392024|    0.010880|   -0.239939|    0.026063|   -0.927943|
|         975|   -8.767834|   -7.723552|   -8.589965|   -8.400415|    0.010832|   -0.240215|    0.025968|   -0.925930|
|        1000|   -8.771417|   -7.731262|   -8.596109|   -8.403851|    0.010774|   -0.240381|    0.025920|   -0.702387|
+-----------------------------------------------------------------------+
|        File Writing Summary       |              Filename             |
+-----------------------------------------------------------------------+
|SU2 binary restart                 |restart.dat                        |
|Paraview                           |vol_solution.vtu                   |
|Paraview surface                   |surface.vtu                        |
+-----------------------------------------------------------------------+
+--------------------------------------------------------------------------------------------------------------------+
|  Inner_Iter|    rms[Rho]|   rms[RhoU]|   rms[RhoV]|   rms[RhoE]|          CD|          CL|         CMz|   LinSolRes|
+--------------------------------------------------------------------------------------------------------------------+
|        1025|   -8.747159|   -7.737490|   -8.600138|   -8.376342|    0.010728|   -0.240639|    0.025819|   -0.873194|
|        1050|   -8.767640|   -7.743224|   -8.616823|   -8.398930|    0.010681|   -0.240849|    0.025748|   -0.707063|
|        1075|   -8.724335|   -7.749204|   -8.601509|   -8.356848|    0.010633|   -0.241019|    0.025690|   -0.834578|
|        1100|   -8.726182|   -7.755267|   -8.604637|   -8.357477|    0.010590|   -0.241246|    0.025602|   -0.802966|
+-----------------------------------------------------------------------+
|        File Writing Summary       |              Filename             |
+-----------------------------------------------------------------------+
|SU2 binary restart                 |restart.dat                        |
|Paraview                           |vol_solution.vtu                   |
|Paraview surface                   |surface.vtu                        |
+-----------------------------------------------------------------------+
+--------------------------------------------------------------------------------------------------------------------+
|  Inner_Iter|    rms[Rho]|   rms[RhoU]|   rms[RhoV]|   rms[RhoE]|          CD|          CL|         CMz|   LinSolRes|
+--------------------------------------------------------------------------------------------------------------------+
|        1125|   -8.769967|   -7.761073|   -8.642971|   -8.395730|    0.010546|   -0.241421|    0.025542|   -0.726553|
|        1150|   -8.741294|   -7.766341|   -8.630383|   -8.374634|    0.010503|   -0.241586|    0.025481|   -0.827689|
|        1175|   -8.779067|   -7.772484|   -8.662082|   -8.408495|    0.010465|   -0.241791|    0.025399|   -0.743920|
|        1200|   -8.741649|   -7.777714|   -8.618765|   -8.372479|    0.010425|   -0.241958|    0.025337|   -0.803277|
+-----------------------------------------------------------------------+
|        File Writing Summary       |              Filename             |
+-----------------------------------------------------------------------+
|SU2 binary restart                 |restart.dat                        |
|Paraview                           |vol_solution.vtu                   |
|Paraview surface                   |surface.vtu                        |
+-----------------------------------------------------------------------+
+--------------------------------------------------------------------------------------------------------------------+
|  Inner_Iter|    rms[Rho]|   rms[RhoU]|   rms[RhoV]|   rms[RhoE]|          CD|          CL|         CMz|   LinSolRes|
+--------------------------------------------------------------------------------------------------------------------+
|        1225|   -8.759342|   -7.783342|   -8.648461|   -8.393381|    0.010387|   -0.242114|    0.025275|   -0.722424|
|        1250|   -8.757786|   -7.788619|   -8.644172|   -8.391532|    0.010354|   -0.242309|    0.025191|   -0.841715|
|        1275|   -8.773578|   -7.794411|   -8.655197|   -8.408560|    0.010320|   -0.242471|    0.025125|   -0.733517|
|        1300|   -8.797748|   -7.799972|   -8.669883|   -8.427202|    0.010287|   -0.242640|    0.025049|   -0.780971|
+-----------------------------------------------------------------------+
|        File Writing Summary       |              Filename             |
+-----------------------------------------------------------------------+
|SU2 binary restart                 |restart.dat                        |
|Paraview                           |vol_solution.vtu                   |
|Paraview surface                   |surface.vtu                        |
+-----------------------------------------------------------------------+
+--------------------------------------------------------------------------------------------------------------------+
|  Inner_Iter|    rms[Rho]|   rms[RhoU]|   rms[RhoV]|   rms[RhoE]|          CD|          CL|         CMz|   LinSolRes|
+--------------------------------------------------------------------------------------------------------------------+
|        1325|   -8.780304|   -7.805371|   -8.655263|   -8.416735|    0.010258|   -0.242834|    0.024959|   -0.740636|
|        1350|   -8.769311|   -7.810594|   -8.629592|   -8.402855|    0.010230|   -0.243016|    0.024874|   -0.836661|
|        1375|   -8.807133|   -7.816645|   -8.659241|   -8.443265|    0.010202|   -0.243198|    0.024786|   -0.772183|
|        1400|   -8.787549|   -7.821998|   -8.638744|   -8.424481|    0.010177|   -0.243402|    0.024685|   -0.734612|
+-----------------------------------------------------------------------+
|        File Writing Summary       |              Filename             |
+-----------------------------------------------------------------------+
|SU2 binary restart                 |restart.dat                        |
|Paraview                           |vol_solution.vtu                   |
|Paraview surface                   |surface.vtu                        |
+-----------------------------------------------------------------------+
+--------------------------------------------------------------------------------------------------------------------+
|  Inner_Iter|    rms[Rho]|   rms[RhoU]|   rms[RhoV]|   rms[RhoE]|          CD|          CL|         CMz|   LinSolRes|
+--------------------------------------------------------------------------------------------------------------------+
|        1425|   -8.809761|   -7.827410|   -8.639454|   -8.449228|    0.010153|   -0.243603|    0.024584|   -0.752179|
|        1450|   -8.785547|   -7.832406|   -8.619535|   -8.423588|    0.010130|   -0.243809|    0.024479|   -0.704884|
|        1475|   -8.814515|   -7.837542|   -8.620101|   -8.459330|    0.010109|   -0.244043|    0.024356|   -0.709226|
|        1500|   -8.835723|   -7.842210|   -8.614171|   -8.487883|    0.010089|   -0.244265|    0.024241|   -0.900325|
+-----------------------------------------------------------------------+
|        File Writing Summary       |              Filename             |
+-----------------------------------------------------------------------+
|SU2 binary restart                 |restart.dat                        |
|Paraview                           |vol_solution.vtu                   |
|Paraview surface                   |surface.vtu                        |
+-----------------------------------------------------------------------+
+--------------------------------------------------------------------------------------------------------------------+
|  Inner_Iter|    rms[Rho]|   rms[RhoU]|   rms[RhoV]|   rms[RhoE]|          CD|          CL|         CMz|   LinSolRes|
+--------------------------------------------------------------------------------------------------------------------+
|        1525|   -8.832695|   -7.846412|   -8.599549|   -8.485794|    0.010070|   -0.244520|    0.024103|   -0.861400|
|        1550|   -8.824187|   -7.849951|   -8.584388|   -8.476883|    0.010052|   -0.244797|    0.023951|   -0.827664|
|        1575|   -8.815009|   -7.852724|   -8.569306|   -8.466624|    0.010035|   -0.245074|    0.023800|   -0.801384|
|        1600|   -8.807026|   -7.854906|   -8.554382|   -8.457233|    0.010018|   -0.245371|    0.023635|   -0.775263|
+-----------------------------------------------------------------------+
|        File Writing Summary       |              Filename             |
+-----------------------------------------------------------------------+
|SU2 binary restart                 |restart.dat                        |
|Paraview                           |vol_solution.vtu                   |
|Paraview surface                   |surface.vtu                        |
+-----------------------------------------------------------------------+
+--------------------------------------------------------------------------------------------------------------------+
|  Inner_Iter|    rms[Rho]|   rms[RhoU]|   rms[RhoV]|   rms[RhoE]|          CD|          CL|         CMz|   LinSolRes|
+--------------------------------------------------------------------------------------------------------------------+
|        1625|   -8.797280|   -7.856454|   -8.538125|   -8.446040|    0.010002|   -0.245682|    0.023464|   -0.744562|
|        1650|   -8.790539|   -7.857378|   -8.524399|   -8.438843|    0.009986|   -0.245997|    0.023290|   -0.707685|
|        1675|   -8.805344|   -7.857674|   -8.517431|   -8.461634|    0.009970|   -0.246305|    0.023125|   -0.726919|
|        1700|   -8.813846|   -7.857171|   -8.507114|   -8.473349|    0.009955|   -0.246653|    0.022932|   -0.746835|
+-----------------------------------------------------------------------+
|        File Writing Summary       |              Filename             |
+-----------------------------------------------------------------------+
|SU2 binary restart                 |restart.dat                        |
|Paraview                           |vol_solution.vtu                   |
|Paraview surface                   |surface.vtu                        |
+-----------------------------------------------------------------------+
+--------------------------------------------------------------------------------------------------------------------+
|  Inner_Iter|    rms[Rho]|   rms[RhoU]|   rms[RhoV]|   rms[RhoE]|          CD|          CL|         CMz|   LinSolRes|
+--------------------------------------------------------------------------------------------------------------------+
|        1725|   -8.808775|   -7.856013|   -8.497037|   -8.461665|    0.009939|   -0.247006|    0.022739|   -0.794072|
|        1750|   -8.797712|   -7.854379|   -8.486800|   -8.455822|    0.009924|   -0.247368|    0.022540|   -0.699136|
|        1775|   -8.800945|   -7.852603|   -8.486684|   -8.457142|    0.009908|   -0.247733|    0.022341|   -0.753525|
|        1800|   -8.782974|   -7.850464|   -8.477665|   -8.437796|    0.009892|   -0.248119|    0.022131|   -0.771920|
+-----------------------------------------------------------------------+
|        File Writing Summary       |              Filename             |
+-----------------------------------------------------------------------+
|SU2 binary restart                 |restart.dat                        |
|Paraview                           |vol_solution.vtu                   |
|Paraview surface                   |surface.vtu                        |
+-----------------------------------------------------------------------+
+--------------------------------------------------------------------------------------------------------------------+
|  Inner_Iter|    rms[Rho]|   rms[RhoU]|   rms[RhoV]|   rms[RhoE]|          CD|          CL|         CMz|   LinSolRes|
+--------------------------------------------------------------------------------------------------------------------+
|        1825|   -8.792060|   -7.848927|   -8.479704|   -8.447314|    0.009875|   -0.248501|    0.021921|   -0.732605|
|        1850|   -8.770672|   -7.847036|   -8.471795|   -8.424723|    0.009860|   -0.248894|    0.021708|   -0.749253|
|        1875|   -8.782781|   -7.845633|   -8.474686|   -8.436868|    0.009842|   -0.249285|    0.021495|   -0.718577|
|        1900|   -8.795254|   -7.844580|   -8.474617|   -8.455679|    0.009825|   -0.249678|    0.021283|   -0.704278|
+-----------------------------------------------------------------------+
|        File Writing Summary       |              Filename             |
+-----------------------------------------------------------------------+
|SU2 binary restart                 |restart.dat                        |
|Paraview                           |vol_solution.vtu                   |
|Paraview surface                   |surface.vtu                        |
+-----------------------------------------------------------------------+
+--------------------------------------------------------------------------------------------------------------------+
|  Inner_Iter|    rms[Rho]|   rms[RhoU]|   rms[RhoV]|   rms[RhoE]|          CD|          CL|         CMz|   LinSolRes|
+--------------------------------------------------------------------------------------------------------------------+
|        1925|   -8.795629|   -7.843876|   -8.474652|   -8.458282|    0.009807|   -0.250057|    0.021081|   -0.787938|
|        1950|   -8.788994|   -7.843440|   -8.474043|   -8.449787|    0.009789|   -0.250456|    0.020865|   -0.785071|
|        1975|   -8.788209|   -7.843340|   -8.474279|   -8.448500|    0.009771|   -0.250859|    0.020647|   -0.777205|
|        2000|   -8.784526|   -7.843866|   -8.476578|   -8.445092|    0.009752|   -0.251258|    0.020433|   -0.772033|
+-----------------------------------------------------------------------+
|        File Writing Summary       |              Filename             |
+-----------------------------------------------------------------------+
|SU2 binary restart                 |restart.dat                        |
|Paraview                           |vol_solution.vtu                   |
|Paraview surface                   |surface.vtu                        |
+-----------------------------------------------------------------------+
+--------------------------------------------------------------------------------------------------------------------+
|  Inner_Iter|    rms[Rho]|   rms[RhoU]|   rms[RhoV]|   rms[RhoE]|          CD|          CL|         CMz|   LinSolRes|
+--------------------------------------------------------------------------------------------------------------------+
|        2025|   -8.786436|   -7.845098|   -8.480513|   -8.447114|    0.009733|   -0.251652|    0.020221|   -0.767834|
|        2050|   -8.789593|   -7.847084|   -8.485422|   -8.450232|    0.009714|   -0.252044|    0.020011|   -0.765203|
|        2075|   -8.791072|   -7.850177|   -8.490492|   -8.452336|    0.009694|   -0.252431|    0.019804|   -0.763715|
|        2100|   -8.793710|   -7.854374|   -8.495791|   -8.455713|    0.009675|   -0.252813|    0.019600|   -0.762488|
+-----------------------------------------------------------------------+
|        File Writing Summary       |              Filename             |
+-----------------------------------------------------------------------+
|SU2 binary restart                 |restart.dat                        |
|Paraview                           |vol_solution.vtu                   |
|Paraview surface                   |surface.vtu                        |
+-----------------------------------------------------------------------+
+--------------------------------------------------------------------------------------------------------------------+
|  Inner_Iter|    rms[Rho]|   rms[RhoU]|   rms[RhoV]|   rms[RhoE]|          CD|          CL|         CMz|   LinSolRes|
+--------------------------------------------------------------------------------------------------------------------+
|        2125|   -8.797249|   -7.859293|   -8.501988|   -8.460122|    0.009655|   -0.253188|    0.019400|   -0.760779|
|        2150|   -8.802046|   -7.864554|   -8.508984|   -8.465798|    0.009635|   -0.253559|    0.019202|   -0.758136|
|        2175|   -8.807487|   -7.870200|   -8.516570|   -8.472152|    0.009615|   -0.253922|    0.019008|   -0.754772|
|        2200|   -8.813246|   -7.876249|   -8.524688|   -8.478824|    0.009595|   -0.254281|    0.018817|   -0.751333|
+-----------------------------------------------------------------------+
|        File Writing Summary       |              Filename             |
+-----------------------------------------------------------------------+
|SU2 binary restart                 |restart.dat                        |
|Paraview                           |vol_solution.vtu                   |
|Paraview surface                   |surface.vtu                        |
+-----------------------------------------------------------------------+
+--------------------------------------------------------------------------------------------------------------------+
|  Inner_Iter|    rms[Rho]|   rms[RhoU]|   rms[RhoV]|   rms[RhoE]|          CD|          CL|         CMz|   LinSolRes|
+--------------------------------------------------------------------------------------------------------------------+
|        2225|   -8.819397|   -7.882647|   -8.532812|   -8.485860|    0.009575|   -0.254633|    0.018629|   -0.748211|
|        2250|   -8.826022|   -7.889481|   -8.540865|   -8.493399|    0.009555|   -0.254979|    0.018445|   -0.745639|
|        2275|   -8.832530|   -7.896792|   -8.548803|   -8.500871|    0.009536|   -0.255317|    0.018264|   -0.743175|
|        2300|   -8.839201|   -7.904345|   -8.556735|   -8.508430|    0.009516|   -0.255650|    0.018087|   -0.740582|
+-----------------------------------------------------------------------+
|        File Writing Summary       |              Filename             |
+-----------------------------------------------------------------------+
|SU2 binary restart                 |restart.dat                        |
|Paraview                           |vol_solution.vtu                   |
|Paraview surface                   |surface.vtu                        |
+-----------------------------------------------------------------------+
+--------------------------------------------------------------------------------------------------------------------+
|  Inner_Iter|    rms[Rho]|   rms[RhoU]|   rms[RhoV]|   rms[RhoE]|          CD|          CL|         CMz|   LinSolRes|
+--------------------------------------------------------------------------------------------------------------------+
|        2325|   -8.846060|   -7.912015|   -8.564692|   -8.516138|    0.009496|   -0.255976|    0.017913|   -0.738128|
|        2350|   -8.853135|   -7.919844|   -8.572781|   -8.523998|    0.009477|   -0.256296|    0.017742|   -0.736084|
|        2375|   -8.860287|   -7.927800|   -8.581269|   -8.531873|    0.009458|   -0.256609|    0.017574|   -0.734577|
|        2400|   -8.867696|   -7.935849|   -8.589918|   -8.539956|    0.009439|   -0.256917|    0.017409|   -0.733488|
+-----------------------------------------------------------------------+
|        File Writing Summary       |              Filename             |
+-----------------------------------------------------------------------+
|SU2 binary restart                 |restart.dat                        |
|Paraview                           |vol_solution.vtu                   |
|Paraview surface                   |surface.vtu                        |
+-----------------------------------------------------------------------+
+--------------------------------------------------------------------------------------------------------------------+
|  Inner_Iter|    rms[Rho]|   rms[RhoU]|   rms[RhoV]|   rms[RhoE]|          CD|          CL|         CMz|   LinSolRes|
+--------------------------------------------------------------------------------------------------------------------+
|        2425|   -8.875153|   -7.944015|   -8.598241|   -8.548004|    0.009420|   -0.257219|    0.017247|   -0.732691|
|        2450|   -8.882182|   -7.952259|   -8.606193|   -8.555544|    0.009402|   -0.257516|    0.017088|   -0.732190|
|        2475|   -8.888862|   -7.960493|   -8.613809|   -8.562580|    0.009384|   -0.257807|    0.016931|   -0.732182|
|        2500|   -8.895492|   -7.968718|   -8.621137|   -8.569485|    0.009366|   -0.258093|    0.016777|   -0.732184|
+-----------------------------------------------------------------------+
|        File Writing Summary       |              Filename             |
+-----------------------------------------------------------------------+
|SU2 binary restart                 |restart.dat                        |
|Paraview                           |vol_solution.vtu                   |
|Paraview surface                   |surface.vtu                        |
+-----------------------------------------------------------------------+
+--------------------------------------------------------------------------------------------------------------------+
|  Inner_Iter|    rms[Rho]|   rms[RhoU]|   rms[RhoV]|   rms[RhoE]|          CD|          CL|         CMz|   LinSolRes|
+--------------------------------------------------------------------------------------------------------------------+
|        2525|   -8.902427|   -7.976968|   -8.628347|   -8.576776|    0.009348|   -0.258375|    0.016626|   -0.730311|
|        2550|   -8.909802|   -7.985209|   -8.635647|   -8.584594|    0.009331|   -0.258651|    0.016477|   -0.725761|
|        2575|   -8.917419|   -7.993424|   -8.642966|   -8.592669|    0.009314|   -0.258922|    0.016331|   -0.720989|
|        2600|   -8.924961|   -8.001627|   -8.650148|   -8.600675|    0.009298|   -0.259189|    0.016187|   -0.716588|
+-----------------------------------------------------------------------+
|        File Writing Summary       |              Filename             |
+-----------------------------------------------------------------------+
|SU2 binary restart                 |restart.dat                        |
|Paraview                           |vol_solution.vtu                   |
|Paraview surface                   |surface.vtu                        |
+-----------------------------------------------------------------------+
+--------------------------------------------------------------------------------------------------------------------+
|  Inner_Iter|    rms[Rho]|   rms[RhoU]|   rms[RhoV]|   rms[RhoE]|          CD|          CL|         CMz|   LinSolRes|
+--------------------------------------------------------------------------------------------------------------------+
|        2625|   -8.932822|   -8.009776|   -8.657575|   -8.609025|    0.009281|   -0.259452|    0.016045|   -0.709861|
|        2650|   -8.942112|   -8.017903|   -8.665109|   -8.619445|    0.009265|   -0.259711|    0.015905|   -0.708696|
|        2675|   -8.950714|   -8.025947|   -8.672589|   -8.628856|    0.009249|   -0.259965|    0.015767|   -0.706991|
|        2700|   -8.958197|   -8.033913|   -8.679734|   -8.636667|    0.009234|   -0.260217|    0.015631|   -0.712364|
+-----------------------------------------------------------------------+
|        File Writing Summary       |              Filename             |
+-----------------------------------------------------------------------+
|SU2 binary restart                 |restart.dat                        |
|Paraview                           |vol_solution.vtu                   |
|Paraview surface                   |surface.vtu                        |
+-----------------------------------------------------------------------+
+--------------------------------------------------------------------------------------------------------------------+
|  Inner_Iter|    rms[Rho]|   rms[RhoU]|   rms[RhoV]|   rms[RhoE]|          CD|          CL|         CMz|   LinSolRes|
+--------------------------------------------------------------------------------------------------------------------+
|        2725|   -8.964524|   -8.041818|   -8.686351|   -8.642913|    0.009219|   -0.260464|    0.015498|   -0.717687|
|        2750|   -8.969739|   -8.049689|   -8.692174|   -8.647701|    0.009204|   -0.260707|    0.015366|   -0.718215|
|        2775|   -8.976295|   -8.057469|   -8.698114|   -8.654483|    0.009189|   -0.260948|    0.015236|   -0.711048|
|        2800|   -8.983494|   -8.065132|   -8.704311|   -8.662200|    0.009175|   -0.261184|    0.015107|   -0.702062|
+-----------------------------------------------------------------------+
|        File Writing Summary       |              Filename             |
+-----------------------------------------------------------------------+
|SU2 binary restart                 |restart.dat                        |
|Paraview                           |vol_solution.vtu                   |
|Paraview surface                   |surface.vtu                        |
+-----------------------------------------------------------------------+
+--------------------------------------------------------------------------------------------------------------------+
|  Inner_Iter|    rms[Rho]|   rms[RhoU]|   rms[RhoV]|   rms[RhoE]|          CD|          CL|         CMz|   LinSolRes|
+--------------------------------------------------------------------------------------------------------------------+
|        2825|   -8.992754|   -8.072708|   -8.710971|   -8.672960|    0.009161|   -0.261418|    0.014981|   -0.700085|
|        2850|   -8.999667|   -8.080185|   -8.717527|   -8.680252|    0.009147|   -0.261648|    0.014856|   -0.707551|
|        2875|   -9.004006|   -8.087600|   -8.723174|   -8.683950|    0.009134|   -0.261875|    0.014733|   -0.712006|
|        2900|   -9.009685|   -8.094953|   -8.728952|   -8.689748|    0.009121|   -0.262100|    0.014612|   -0.704436|
+-----------------------------------------------------------------------+
|        File Writing Summary       |              Filename             |
+-----------------------------------------------------------------------+
|SU2 binary restart                 |restart.dat                        |
|Paraview                           |vol_solution.vtu                   |
|Paraview surface                   |surface.vtu                        |
+-----------------------------------------------------------------------+
+--------------------------------------------------------------------------------------------------------------------+
|  Inner_Iter|    rms[Rho]|   rms[RhoU]|   rms[RhoV]|   rms[RhoE]|          CD|          CL|         CMz|   LinSolRes|
+--------------------------------------------------------------------------------------------------------------------+
|        2925|   -9.017768|   -8.102242|   -8.735356|   -8.699006|    0.009108|   -0.262321|    0.014492|   -0.696583|
|        2950|   -9.025511|   -8.109453|   -8.741986|   -8.707755|    0.009095|   -0.262539|    0.014374|   -0.699282|
|        2975|   -9.029806|   -8.116618|   -8.747456|   -8.711569|    0.009083|   -0.262755|    0.014257|   -0.706923|
|        3000|   -9.034752|   -8.123732|   -8.752697|   -8.716547|    0.009071|   -0.262968|    0.014142|   -0.699032|
+-----------------------------------------------------------------------+
|        File Writing Summary       |              Filename             |
+-----------------------------------------------------------------------+
|SU2 binary restart                 |restart.dat                        |
|Paraview                           |vol_solution.vtu                   |
|Paraview surface                   |surface.vtu                        |
+-----------------------------------------------------------------------+
+--------------------------------------------------------------------------------------------------------------------+
|  Inner_Iter|    rms[Rho]|   rms[RhoU]|   rms[RhoV]|   rms[RhoE]|          CD|          CL|         CMz|   LinSolRes|
+--------------------------------------------------------------------------------------------------------------------+
|        3025|   -9.043253|   -8.130806|   -8.758660|   -8.726695|    0.009059|   -0.263179|    0.014028|   -0.691647|
|        3050|   -9.049465|   -8.137788|   -8.764591|   -8.733378|    0.009047|   -0.263387|    0.013916|   -0.699432|
|        3075|   -9.052832|   -8.144721|   -8.769356|   -8.736101|    0.009036|   -0.263592|    0.013805|   -0.698647|
|        3100|   -9.059669|   -8.151610|   -8.774943|   -8.743997|    0.009025|   -0.263795|    0.013696|   -0.688641|
+-----------------------------------------------------------------------+
|        File Writing Summary       |              Filename             |
+-----------------------------------------------------------------------+
|SU2 binary restart                 |restart.dat                        |
|Paraview                           |vol_solution.vtu                   |
|Paraview surface                   |surface.vtu                        |
+-----------------------------------------------------------------------+
+--------------------------------------------------------------------------------------------------------------------+
|  Inner_Iter|    rms[Rho]|   rms[RhoU]|   rms[RhoV]|   rms[RhoE]|          CD|          CL|         CMz|   LinSolRes|
+--------------------------------------------------------------------------------------------------------------------+
|        3125|   -9.067031|   -8.158418|   -8.781138|   -8.752541|    0.009014|   -0.263995|    0.013587|   -0.693813|
|        3150|   -9.070132|   -8.165152|   -8.786104|   -8.754912|    0.009003|   -0.264193|    0.013481|   -0.695382|
|        3175|   -9.077001|   -8.171867|   -8.791854|   -8.763008|    0.008993|   -0.264388|    0.013376|   -0.685309|
|        3200|   -9.083715|   -8.178534|   -8.798049|   -8.770682|    0.008982|   -0.264581|    0.013272|   -0.692099|
+-----------------------------------------------------------------------+
|        File Writing Summary       |              Filename             |
+-----------------------------------------------------------------------+
|SU2 binary restart                 |restart.dat                        |
|Paraview                           |vol_solution.vtu                   |
|Paraview surface                   |surface.vtu                        |
+-----------------------------------------------------------------------+
+--------------------------------------------------------------------------------------------------------------------+
|  Inner_Iter|    rms[Rho]|   rms[RhoU]|   rms[RhoV]|   rms[RhoE]|          CD|          CL|         CMz|   LinSolRes|
+--------------------------------------------------------------------------------------------------------------------+
|        3225|   -9.086750|   -8.185180|   -8.802930|   -8.773102|    0.008972|   -0.264771|    0.013169|   -0.690050|
|        3250|   -9.094438|   -8.191816|   -8.808870|   -8.782492|    0.008962|   -0.264960|    0.013068|   -0.681354|
|        3275|   -9.098781|   -8.198399|   -8.814311|   -8.786705|    0.008952|   -0.265146|    0.012967|   -0.691334|
|        3300|   -9.103151|   -8.204956|   -8.819369|   -8.791235|    0.008943|   -0.265330|    0.012868|   -0.680938|
+-----------------------------------------------------------------------+
|        File Writing Summary       |              Filename             |
+-----------------------------------------------------------------------+
|SU2 binary restart                 |restart.dat                        |
|Paraview                           |vol_solution.vtu                   |
|Paraview surface                   |surface.vtu                        |
+-----------------------------------------------------------------------+
+--------------------------------------------------------------------------------------------------------------------+
|  Inner_Iter|    rms[Rho]|   rms[RhoU]|   rms[RhoV]|   rms[RhoE]|          CD|          CL|         CMz|   LinSolRes|
+--------------------------------------------------------------------------------------------------------------------+
|        3325|   -9.111048|   -8.211507|   -8.825286|   -8.800935|    0.008934|   -0.265512|    0.012771|   -0.684375|
|        3350|   -9.113619|   -8.218027|   -8.829686|   -8.802745|    0.008924|   -0.265692|    0.012674|   -0.684054|
|        3375|   -9.120922|   -8.224543|   -8.835086|   -8.811761|    0.008915|   -0.265870|    0.012579|   -0.676298|
|        3400|   -9.124362|   -8.231009|   -8.839644|   -8.814820|    0.008907|   -0.266046|    0.012484|   -0.684297|
+-----------------------------------------------------------------------+
|        File Writing Summary       |              Filename             |
+-----------------------------------------------------------------------+
|SU2 binary restart                 |restart.dat                        |
|Paraview                           |vol_solution.vtu                   |
|Paraview surface                   |surface.vtu                        |
+-----------------------------------------------------------------------+
+--------------------------------------------------------------------------------------------------------------------+
|  Inner_Iter|    rms[Rho]|   rms[RhoU]|   rms[RhoV]|   rms[RhoE]|          CD|          CL|         CMz|   LinSolRes|
+--------------------------------------------------------------------------------------------------------------------+
|        3425|   -9.130680|   -8.237441|   -8.844635|   -8.822510|    0.008898|   -0.266220|    0.012391|   -0.673403|
|        3450|   -9.135042|   -8.243822|   -8.849718|   -8.826933|    0.008890|   -0.266393|    0.012299|   -0.681985|
|        3475|   -9.140075|   -8.250207|   -8.854602|   -8.832669|    0.008881|   -0.266563|    0.012208|   -0.671548|
|        3500|   -9.145611|   -8.256571|   -8.860000|   -8.838923|    0.008873|   -0.266731|    0.012117|   -0.678611|
+-----------------------------------------------------------------------+
|        File Writing Summary       |              Filename             |
+-----------------------------------------------------------------------+
|SU2 binary restart                 |restart.dat                        |
|Paraview                           |vol_solution.vtu                   |
|Paraview surface                   |surface.vtu                        |
+-----------------------------------------------------------------------+
+--------------------------------------------------------------------------------------------------------------------+
|  Inner_Iter|    rms[Rho]|   rms[RhoU]|   rms[RhoV]|   rms[RhoE]|          CD|          CL|         CMz|   LinSolRes|
+--------------------------------------------------------------------------------------------------------------------+
|        3525|   -9.149779|   -8.262952|   -8.864735|   -8.843342|    0.008865|   -0.266898|    0.012028|   -0.669470|
|        3550|   -9.155853|   -8.269312|   -8.870176|   -8.850469|    0.008857|   -0.267062|    0.011940|   -0.675689|
|        3575|   -9.159840|   -8.275681|   -8.874830|   -8.854631|    0.008850|   -0.267225|    0.011853|   -0.667127|
|        3600|   -9.165688|   -8.282016|   -8.880169|   -8.861461|    0.008842|   -0.267387|    0.011768|   -0.673421|
+-----------------------------------------------------------------------+
|        File Writing Summary       |              Filename             |
+-----------------------------------------------------------------------+
|SU2 binary restart                 |restart.dat                        |
|Paraview                           |vol_solution.vtu                   |
|Paraview surface                   |surface.vtu                        |
+-----------------------------------------------------------------------+
+--------------------------------------------------------------------------------------------------------------------+
|  Inner_Iter|    rms[Rho]|   rms[RhoU]|   rms[RhoV]|   rms[RhoE]|          CD|          CL|         CMz|   LinSolRes|
+--------------------------------------------------------------------------------------------------------------------+
|        3625|   -9.170153|   -8.288357|   -8.884877|   -8.866421|    0.008835|   -0.267546|    0.011682|   -0.664505|
|        3650|   -9.175216|   -8.294681|   -8.890012|   -8.872053|    0.008827|   -0.267704|    0.011598|   -0.671573|
|        3675|   -9.180583|   -8.301026|   -8.894834|   -8.878457|    0.008820|   -0.267860|    0.011515|   -0.661632|
|        3700|   -9.184583|   -8.307352|   -8.899691|   -8.882438|    0.008813|   -0.268014|    0.011433|   -0.669028|
+-----------------------------------------------------------------------+
|        File Writing Summary       |              Filename             |
+-----------------------------------------------------------------------+
|SU2 binary restart                 |restart.dat                        |
|Paraview                           |vol_solution.vtu                   |
|Paraview surface                   |surface.vtu                        |
+-----------------------------------------------------------------------+
+--------------------------------------------------------------------------------------------------------------------+
|  Inner_Iter|    rms[Rho]|   rms[RhoU]|   rms[RhoV]|   rms[RhoE]|          CD|          CL|         CMz|   LinSolRes|
+--------------------------------------------------------------------------------------------------------------------+
|        3725|   -9.190723|   -8.313688|   -8.904790|   -8.890042|    0.008806|   -0.268167|    0.011352|   -0.659586|
|        3750|   -9.193997|   -8.320020|   -8.909397|   -8.892951|    0.008800|   -0.268318|    0.011272|   -0.664255|
|        3775|   -9.201207|   -8.326362|   -8.914850|   -8.902156|    0.008793|   -0.268468|    0.011192|   -0.660752|
|        3800|   -9.203841|   -8.332686|   -8.919329|   -8.904139|    0.008786|   -0.268616|    0.011114|   -0.657711|
+-----------------------------------------------------------------------+
|        File Writing Summary       |              Filename             |
+-----------------------------------------------------------------------+
|SU2 binary restart                 |restart.dat                        |
|Paraview                           |vol_solution.vtu                   |
|Paraview surface                   |surface.vtu                        |
+-----------------------------------------------------------------------+
+--------------------------------------------------------------------------------------------------------------------+
|  Inner_Iter|    rms[Rho]|   rms[RhoU]|   rms[RhoV]|   rms[RhoE]|          CD|          CL|         CMz|   LinSolRes|
+--------------------------------------------------------------------------------------------------------------------+
|        3825|   -9.210054|   -8.339028|   -8.924675|   -8.911732|    0.008780|   -0.268762|    0.011036|   -0.661902|
|        3850|   -9.214939|   -8.345391|   -8.929520|   -8.917442|    0.008774|   -0.268907|    0.010960|   -0.653688|
|        3875|   -9.218861|   -8.351749|   -8.934448|   -8.921352|    0.008768|   -0.269050|    0.010884|   -0.659753|
|        3900|   -9.225762|   -8.358142|   -8.939791|   -8.930203|    0.008762|   -0.269192|    0.010809|   -0.654403|
+-----------------------------------------------------------------------+
|        File Writing Summary       |              Filename             |
+-----------------------------------------------------------------------+
|SU2 binary restart                 |restart.dat                        |
|Paraview                           |vol_solution.vtu                   |
|Paraview surface                   |surface.vtu                        |
+-----------------------------------------------------------------------+
+--------------------------------------------------------------------------------------------------------------------+
|  Inner_Iter|    rms[Rho]|   rms[RhoU]|   rms[RhoV]|   rms[RhoE]|          CD|          CL|         CMz|   LinSolRes|
+--------------------------------------------------------------------------------------------------------------------+
|        3925|   -9.228612|   -8.364527|   -8.944222|   -8.932511|    0.008756|   -0.269332|    0.010735|   -0.651814|
|        3950|   -9.234316|   -8.370934|   -8.949344|   -8.939355|    0.008750|   -0.269471|    0.010662|   -0.656791|
|        3975|   -9.239784|   -8.377345|   -8.954388|   -8.946025|    0.008744|   -0.269608|    0.010589|   -0.648505|
|        4000|   -9.243335|   -8.383751|   -8.959149|   -8.949362|    0.008738|   -0.269743|    0.010518|   -0.650744|
+-----------------------------------------------------------------------+
|        File Writing Summary       |              Filename             |
+-----------------------------------------------------------------------+
|SU2 binary restart                 |restart.dat                        |
|Paraview                           |vol_solution.vtu                   |
|Paraview surface                   |surface.vtu                        |
+-----------------------------------------------------------------------+
+--------------------------------------------------------------------------------------------------------------------+
|  Inner_Iter|    rms[Rho]|   rms[RhoU]|   rms[RhoV]|   rms[RhoE]|          CD|          CL|         CMz|   LinSolRes|
+--------------------------------------------------------------------------------------------------------------------+
|        4025|   -9.249646|   -8.390176|   -8.964515|   -8.957247|    0.008733|   -0.269878|    0.010447|   -0.652002|
|        4050|   -9.254419|   -8.396620|   -8.969503|   -8.962808|    0.008728|   -0.270010|    0.010377|   -0.645126|
|        4075|   -9.258314|   -8.403041|   -8.974519|   -8.966688|    0.008722|   -0.270142|    0.010308|   -0.648412|
|        4100|   -9.264640|   -8.409493|   -8.979926|   -8.974659|    0.008717|   -0.270271|    0.010239|   -0.648457|
+-----------------------------------------------------------------------+
|        File Writing Summary       |              Filename             |
+-----------------------------------------------------------------------+
|SU2 binary restart                 |restart.dat                        |
|Paraview                           |vol_solution.vtu                   |
|Paraview surface                   |surface.vtu                        |
+-----------------------------------------------------------------------+
+--------------------------------------------------------------------------------------------------------------------+
|  Inner_Iter|    rms[Rho]|   rms[RhoU]|   rms[RhoV]|   rms[RhoE]|          CD|          CL|         CMz|   LinSolRes|
+--------------------------------------------------------------------------------------------------------------------+
|        4125|   -9.269315|   -8.415974|   -8.984919|   -8.980087|    0.008712|   -0.270400|    0.010172|   -0.642222|
|        4150|   -9.273286|   -8.422449|   -8.989923|   -8.984091|    0.008707|   -0.270527|    0.010105|   -0.644581|
|        4175|   -9.279277|   -8.428955|   -8.995286|   -8.991547|    0.008702|   -0.270652|    0.010039|   -0.646317|
|        4200|   -9.284612|   -8.435456|   -9.000599|   -8.998067|    0.008697|   -0.270776|    0.009974|   -0.639952|
+-----------------------------------------------------------------------+
|        File Writing Summary       |              Filename             |
+-----------------------------------------------------------------------+
|SU2 binary restart                 |restart.dat                        |
|Paraview                           |vol_solution.vtu                   |
|Paraview surface                   |surface.vtu                        |
+-----------------------------------------------------------------------+
+--------------------------------------------------------------------------------------------------------------------+
|  Inner_Iter|    rms[Rho]|   rms[RhoU]|   rms[RhoV]|   rms[RhoE]|          CD|          CL|         CMz|   LinSolRes|
+--------------------------------------------------------------------------------------------------------------------+
|        4225|   -9.288394|   -8.441955|   -9.005613|   -9.001803|    0.008692|   -0.270899|    0.009910|   -0.639805|
|        4250|   -9.293781|   -8.448491|   -9.011042|   -9.008264|    0.008687|   -0.271020|    0.009846|   -0.644387|
|        4275|   -9.300300|   -8.455022|   -9.016658|   -9.016716|    0.008683|   -0.271140|    0.009783|   -0.639145|
|        4300|   -9.304093|   -8.461593|   -9.021573|   -9.020629|    0.008678|   -0.271259|    0.009721|   -0.636042|
+-----------------------------------------------------------------------+
|        File Writing Summary       |              Filename             |
+-----------------------------------------------------------------------+
|SU2 binary restart                 |restart.dat                        |
|Paraview                           |vol_solution.vtu                   |
|Paraview surface                   |surface.vtu                        |
+-----------------------------------------------------------------------+
+--------------------------------------------------------------------------------------------------------------------+
|  Inner_Iter|    rms[Rho]|   rms[RhoU]|   rms[RhoV]|   rms[RhoE]|          CD|          CL|         CMz|   LinSolRes|
+--------------------------------------------------------------------------------------------------------------------+
|        4325|   -9.308514|   -8.468156|   -9.026822|   -9.025416|    0.008674|   -0.271376|    0.009660|   -0.638559|
|        4350|   -9.314263|   -8.474748|   -9.032116|   -9.032592|    0.008669|   -0.271492|    0.009599|   -0.639533|
|        4375|   -9.319985|   -8.481305|   -9.037491|   -9.039840|    0.008665|   -0.271606|    0.009539|   -0.634221|
|        4400|   -9.323822|   -8.487882|   -9.042399|   -9.043814|    0.008661|   -0.271720|    0.009480|   -0.632540|
+-----------------------------------------------------------------------+
|        File Writing Summary       |              Filename             |
+-----------------------------------------------------------------------+
|SU2 binary restart                 |restart.dat                        |
|Paraview                           |vol_solution.vtu                   |
|Paraview surface                   |surface.vtu                        |
+-----------------------------------------------------------------------+
+--------------------------------------------------------------------------------------------------------------------+
|  Inner_Iter|    rms[Rho]|   rms[RhoU]|   rms[RhoV]|   rms[RhoE]|          CD|          CL|         CMz|   LinSolRes|
+--------------------------------------------------------------------------------------------------------------------+
|        4425|   -9.328499|   -8.494449|   -9.047783|   -9.049099|    0.008656|   -0.271832|    0.009421|   -0.635159|
|        4450|   -9.334197|   -8.501043|   -9.053255|   -9.056244|    0.008652|   -0.271942|    0.009363|   -0.635768|
|        4475|   -9.340112|   -8.507617|   -9.058934|   -9.063849|    0.008648|   -0.272051|    0.009306|   -0.630959|
|        4500|   -9.344052|   -8.514220|   -9.064140|   -9.068014|    0.008644|   -0.272159|    0.009250|   -0.629051|
+-----------------------------------------------------------------------+
|        File Writing Summary       |              Filename             |
+-----------------------------------------------------------------------+
|SU2 binary restart                 |restart.dat                        |
|Paraview                           |vol_solution.vtu                   |
|Paraview surface                   |surface.vtu                        |
+-----------------------------------------------------------------------+
+--------------------------------------------------------------------------------------------------------------------+
|  Inner_Iter|    rms[Rho]|   rms[RhoU]|   rms[RhoV]|   rms[RhoE]|          CD|          CL|         CMz|   LinSolRes|
+--------------------------------------------------------------------------------------------------------------------+
|        4525|   -9.348662|   -8.520807|   -9.069718|   -9.073179|    0.008640|   -0.272266|    0.009194|   -0.630067|
|        4550|   -9.353954|   -8.527450|   -9.075325|   -9.079669|    0.008636|   -0.272372|    0.009139|   -0.633113|
|        4575|   -9.360049|   -8.534075|   -9.081024|   -9.087593|    0.008633|   -0.272476|    0.009085|   -0.629198|
|        4600|   -9.364740|   -8.540737|   -9.086474|   -9.093159|    0.008629|   -0.272579|    0.009032|   -0.626143|
+-----------------------------------------------------------------------+
|        File Writing Summary       |              Filename             |
+-----------------------------------------------------------------------+
|SU2 binary restart                 |restart.dat                        |
|Paraview                           |vol_solution.vtu                   |
|Paraview surface                   |surface.vtu                        |
+-----------------------------------------------------------------------+
+--------------------------------------------------------------------------------------------------------------------+
|  Inner_Iter|    rms[Rho]|   rms[RhoU]|   rms[RhoV]|   rms[RhoE]|          CD|          CL|         CMz|   LinSolRes|
+--------------------------------------------------------------------------------------------------------------------+
|        4625|   -9.369052|   -8.547399|   -9.091718|   -9.097960|    0.008625|   -0.272680|    0.008979|   -0.625356|
|        4650|   -9.373885|   -8.554045|   -9.097296|   -9.103598|    0.008622|   -0.272781|    0.008926|   -0.626579|
|        4675|   -9.379106|   -8.560737|   -9.102867|   -9.110052|    0.008618|   -0.272880|    0.008875|   -0.628931|
|        4700|   -9.384984|   -8.567407|   -9.108583|   -9.117689|    0.008615|   -0.272978|    0.008824|   -0.625451|
+-----------------------------------------------------------------------+
|        File Writing Summary       |              Filename             |
+-----------------------------------------------------------------------+
|SU2 binary restart                 |restart.dat                        |
|Paraview                           |vol_solution.vtu                   |
|Paraview surface                   |surface.vtu                        |
+-----------------------------------------------------------------------+
+--------------------------------------------------------------------------------------------------------------------+
|  Inner_Iter|    rms[Rho]|   rms[RhoU]|   rms[RhoV]|   rms[RhoE]|          CD|          CL|         CMz|   LinSolRes|
+--------------------------------------------------------------------------------------------------------------------+
|        4725|   -9.390188|   -8.574106|   -9.114317|   -9.124187|    0.008611|   -0.273075|    0.008774|   -0.622614|
|        4750|   -9.394423|   -8.580832|   -9.119795|   -9.128889|    0.008608|   -0.273170|    0.008724|   -0.621563|
|        4775|   -9.399236|   -8.587538|   -9.125542|   -9.134518|    0.008604|   -0.273264|    0.008675|   -0.621368|
|        4800|   -9.404344|   -8.594262|   -9.131450|   -9.140761|    0.008601|   -0.273357|    0.008627|   -0.623332|
+-----------------------------------------------------------------------+
|        File Writing Summary       |              Filename             |
+-----------------------------------------------------------------------+
|SU2 binary restart                 |restart.dat                        |
|Paraview                           |vol_solution.vtu                   |
|Paraview surface                   |surface.vtu                        |
+-----------------------------------------------------------------------+
+--------------------------------------------------------------------------------------------------------------------+
|  Inner_Iter|    rms[Rho]|   rms[RhoU]|   rms[RhoV]|   rms[RhoE]|          CD|          CL|         CMz|   LinSolRes|
+--------------------------------------------------------------------------------------------------------------------+
|        4825|   -9.409674|   -8.601009|   -9.137302|   -9.147482|    0.008598|   -0.273449|    0.008579|   -0.624394|
|        4850|   -9.415466|   -8.607735|   -9.143276|   -9.155066|    0.008595|   -0.273540|    0.008532|   -0.621073|
|        4875|   -9.420814|   -8.614490|   -9.149256|   -9.161890|    0.008592|   -0.273630|    0.008486|   -0.618759|
|        4900|   -9.425089|   -8.621266|   -9.154972|   -9.166713|    0.008589|   -0.273718|    0.008440|   -0.617808|
+-----------------------------------------------------------------------+
|        File Writing Summary       |              Filename             |
+-----------------------------------------------------------------------+
|SU2 binary restart                 |restart.dat                        |
|Paraview                           |vol_solution.vtu                   |
|Paraview surface                   |surface.vtu                        |
+-----------------------------------------------------------------------+
+--------------------------------------------------------------------------------------------------------------------+
|  Inner_Iter|    rms[Rho]|   rms[RhoU]|   rms[RhoV]|   rms[RhoE]|          CD|          CL|         CMz|   LinSolRes|
+--------------------------------------------------------------------------------------------------------------------+
|        4925|   -9.429901|   -8.628035|   -9.160775|   -9.172482|    0.008586|   -0.273805|    0.008395|   -0.617327|
|        4950|   -9.434928|   -8.634789|   -9.166782|   -9.178627|    0.008583|   -0.273891|    0.008350|   -0.617455|
|        4975|   -9.439987|   -8.641564|   -9.172778|   -9.184939|    0.008580|   -0.273976|    0.008306|   -0.619098|
[...]
|SU2 binary restart                 |restart.dat                        |
|Paraview                           |vol_solution.vtu                   |
|Paraview surface                   |surface.vtu                        |
+-----------------------------------------------------------------------+
+--------------------------------------------------------------------------------------------------------------------+
|  Inner_Iter|    rms[Rho]|   rms[RhoU]|   rms[RhoV]|   rms[RhoE]|          CD|          CL|         CMz|   LinSolRes|
+--------------------------------------------------------------------------------------------------------------------+
|        9025|  -10.107981|   -9.832464|  -10.270586|  -10.322656|    0.008411|   -0.279268|    0.005620|   -0.594411|
|        9050|  -10.111110|   -9.840251|  -10.278151|  -10.331110|    0.008411|   -0.279275|    0.005617|   -0.593881|
|        9075|  -10.114138|   -9.848082|  -10.285475|  -10.338257|    0.008410|   -0.279281|    0.005613|   -0.594780|
|        9100|  -10.117171|   -9.855903|  -10.293027|  -10.345528|    0.008410|   -0.279288|    0.005610|   -0.596223|
+-----------------------------------------------------------------------+
|        File Writing Summary       |              Filename             |
+-----------------------------------------------------------------------+
|SU2 binary restart                 |restart.dat                        |
|Paraview                           |vol_solution.vtu                   |
|Paraview surface                   |surface.vtu                        |
+-----------------------------------------------------------------------+
+--------------------------------------------------------------------------------------------------------------------+
|  Inner_Iter|    rms[Rho]|   rms[RhoU]|   rms[RhoV]|   rms[RhoE]|          CD|          CL|         CMz|   LinSolRes|
+--------------------------------------------------------------------------------------------------------------------+
|        9125|  -10.120255|   -9.863719|  -10.300452|  -10.353769|    0.008410|   -0.279295|    0.005607|   -0.595328|
|        9150|  -10.123222|   -9.871570|  -10.307912|  -10.360386|    0.008410|   -0.279301|    0.005604|   -0.597755|
|        9175|  -10.126321|   -9.879373|  -10.315499|  -10.369170|    0.008410|   -0.279308|    0.005600|   -0.596738|
|        9200|  -10.129274|   -9.887241|  -10.322868|  -10.375767|    0.008409|   -0.279314|    0.005597|   -0.598779|
+-----------------------------------------------------------------------+
|        File Writing Summary       |              Filename             |
+-----------------------------------------------------------------------+
|SU2 binary restart                 |restart.dat                        |
|Paraview                           |vol_solution.vtu                   |
|Paraview surface                   |surface.vtu                        |
+-----------------------------------------------------------------------+
+--------------------------------------------------------------------------------------------------------------------+
|  Inner_Iter|    rms[Rho]|   rms[RhoU]|   rms[RhoV]|   rms[RhoE]|          CD|          CL|         CMz|   LinSolRes|
+--------------------------------------------------------------------------------------------------------------------+
|        9225|  -10.132308|   -9.895069|  -10.330471|  -10.383727|    0.008409|   -0.279320|    0.005594|   -0.599032|
|        9250|  -10.135308|   -9.902932|  -10.337847|  -10.391379|    0.008409|   -0.279326|    0.005591|   -0.599335|
|        9275|  -10.138270|   -9.910797|  -10.345388|  -10.398478|    0.008409|   -0.279332|    0.005589|   -0.601186|
|        9300|  -10.141307|   -9.918649|  -10.352856|  -10.407024|    0.008409|   -0.279338|    0.005586|   -0.600313|
+-----------------------------------------------------------------------+
|        File Writing Summary       |              Filename             |
+-----------------------------------------------------------------------+
|SU2 binary restart                 |restart.dat                        |
|Paraview                           |vol_solution.vtu                   |
|Paraview surface                   |surface.vtu                        |
+-----------------------------------------------------------------------+
+--------------------------------------------------------------------------------------------------------------------+
|  Inner_Iter|    rms[Rho]|   rms[RhoU]|   rms[RhoV]|   rms[RhoE]|          CD|          CL|         CMz|   LinSolRes|
+--------------------------------------------------------------------------------------------------------------------+
|        9325|  -10.144218|   -9.926549|  -10.360306|  -10.413451|    0.008408|   -0.279344|    0.005583|   -0.603103|
|        9350|  -10.147243|   -9.934395|  -10.367864|  -10.422006|    0.008408|   -0.279350|    0.005580|   -0.602092|
|        9375|  -10.150156|   -9.942299|  -10.375279|  -10.428790|    0.008408|   -0.279355|    0.005578|   -0.604252|
|        9400|  -10.153149|   -9.950154|  -10.382942|  -10.437118|    0.008408|   -0.279361|    0.005575|   -0.604316|
+-----------------------------------------------------------------------+
|        File Writing Summary       |              Filename             |
+-----------------------------------------------------------------------+
|SU2 binary restart                 |restart.dat                        |
|Paraview                           |vol_solution.vtu                   |
|Paraview surface                   |surface.vtu                        |
+-----------------------------------------------------------------------+
+--------------------------------------------------------------------------------------------------------------------+
|  Inner_Iter|    rms[Rho]|   rms[RhoU]|   rms[RhoV]|   rms[RhoE]|          CD|          CL|         CMz|   LinSolRes|
+--------------------------------------------------------------------------------------------------------------------+
|        9425|  -10.156076|   -9.958053|  -10.390363|  -10.444379|    0.008408|   -0.279366|    0.005572|   -0.605396|
|        9450|  -10.159012|   -9.965937|  -10.398022|  -10.451853|    0.008408|   -0.279372|    0.005570|   -0.606878|
|        9475|  -10.161967|   -9.973829|  -10.405507|  -10.459951|    0.008407|   -0.279377|    0.005567|   -0.606685|
|        9500|  -10.164855|   -9.981739|  -10.413108|  -10.466829|    0.008407|   -0.279382|    0.005565|   -0.609156|
+-----------------------------------------------------------------------+
|        File Writing Summary       |              Filename             |
+-----------------------------------------------------------------------+
|SU2 binary restart                 |restart.dat                        |
|Paraview                           |vol_solution.vtu                   |
|Paraview surface                   |surface.vtu                        |
+-----------------------------------------------------------------------+
+--------------------------------------------------------------------------------------------------------------------+
|  Inner_Iter|    rms[Rho]|   rms[RhoU]|   rms[RhoV]|   rms[RhoE]|          CD|          CL|         CMz|   LinSolRes|
+--------------------------------------------------------------------------------------------------------------------+
|        9525|  -10.167826|   -9.989621|  -10.420694|  -10.475567|    0.008407|   -0.279387|    0.005562|   -0.608340|
|        9550|  -10.170683|   -9.997557|  -10.428222|  -10.482006|    0.008407|   -0.279392|    0.005560|   -0.611355|
|        9575|  -10.173637|  -10.005441|  -10.435849|  -10.490639|    0.008407|   -0.279397|    0.005558|   -0.610534|
|        9600|  -10.176491|  -10.013390|  -10.443323|  -10.497357|    0.008407|   -0.279402|    0.005555|   -0.613109|
+-----------------------------------------------------------------------+
|        File Writing Summary       |              Filename             |
+-----------------------------------------------------------------------+
|SU2 binary restart                 |restart.dat                        |
|Paraview                           |vol_solution.vtu                   |
|Paraview surface                   |surface.vtu                        |
+-----------------------------------------------------------------------+
+--------------------------------------------------------------------------------------------------------------------+
|  Inner_Iter|    rms[Rho]|   rms[RhoU]|   rms[RhoV]|   rms[RhoE]|          CD|          CL|         CMz|   LinSolRes|
+--------------------------------------------------------------------------------------------------------------------+
|        9625|  -10.179427|  -10.021289|  -10.451012|  -10.505949|    0.008406|   -0.279406|    0.005553|   -0.612963|
|        9650|  -10.182279|  -10.029247|  -10.458449|  -10.512819|    0.008406|   -0.279411|    0.005551|   -0.614935|
|        9675|  -10.185179|  -10.037169|  -10.466142|  -10.520828|    0.008406|   -0.279416|    0.005549|   -0.615662|
|        9700|  -10.188048|  -10.045129|  -10.473615|  -10.528377|    0.008406|   -0.279420|    0.005546|   -0.616737|
+-----------------------------------------------------------------------+
|        File Writing Summary       |              Filename             |
+-----------------------------------------------------------------------+
|SU2 binary restart                 |restart.dat                        |
|Paraview                           |vol_solution.vtu                   |
|Paraview surface                   |surface.vtu                        |
+-----------------------------------------------------------------------+
+--------------------------------------------------------------------------------------------------------------------+
|  Inner_Iter|    rms[Rho]|   rms[RhoU]|   rms[RhoV]|   rms[RhoE]|          CD|          CL|         CMz|   LinSolRes|
+--------------------------------------------------------------------------------------------------------------------+
|        9725|  -10.190915|  -10.053067|  -10.481322|  -10.535974|    0.008406|   -0.279425|    0.005544|   -0.618371|
|        9750|  -10.193790|  -10.061015|  -10.488855|  -10.543949|    0.008406|   -0.279429|    0.005542|   -0.618750|
|        9775|  -10.196628|  -10.068973|  -10.496565|  -10.551080|    0.008406|   -0.279433|    0.005540|   -0.621197|
|        9800|  -10.199506|  -10.076925|  -10.504149|  -10.559418|    0.008406|   -0.279437|    0.005538|   -0.621048|
+-----------------------------------------------------------------------+
|        File Writing Summary       |              Filename             |
+-----------------------------------------------------------------------+
|SU2 binary restart                 |restart.dat                        |
|Paraview                           |vol_solution.vtu                   |
|Paraview surface                   |surface.vtu                        |
+-----------------------------------------------------------------------+
+--------------------------------------------------------------------------------------------------------------------+
|  Inner_Iter|    rms[Rho]|   rms[RhoU]|   rms[RhoV]|   rms[RhoE]|          CD|          CL|         CMz|   LinSolRes|
+--------------------------------------------------------------------------------------------------------------------+
|        9825|  -10.202321|  -10.084903|  -10.511828|  -10.566299|    0.008405|   -0.279441|    0.005536|   -0.623916|
|        9850|  -10.205200|  -10.092853|  -10.519477|  -10.575012|    0.008405|   -0.279445|    0.005534|   -0.623494|
|        9875|  -10.207997|  -10.100848|  -10.527130|  -10.581608|    0.008405|   -0.279449|    0.005532|   -0.626765|
|        9900|  -10.210864|  -10.108803|  -10.534796|  -10.590295|    0.008405|   -0.279453|    0.005531|   -0.626227|
+-----------------------------------------------------------------------+
|        File Writing Summary       |              Filename             |
+-----------------------------------------------------------------------+
|SU2 binary restart                 |restart.dat                        |
|Paraview                           |vol_solution.vtu                   |
|Paraview surface                   |surface.vtu                        |
+-----------------------------------------------------------------------+
+--------------------------------------------------------------------------------------------------------------------+
|  Inner_Iter|    rms[Rho]|   rms[RhoU]|   rms[RhoV]|   rms[RhoE]|          CD|          CL|         CMz|   LinSolRes|
+--------------------------------------------------------------------------------------------------------------------+
|        9925|  -10.213650|  -10.116810|  -10.542423|  -10.596931|    0.008405|   -0.279457|    0.005529|   -0.629512|
|        9950|  -10.216512|  -10.124769|  -10.550142|  -10.605866|    0.008405|   -0.279461|    0.005527|   -0.629035|
|        9975|  -10.219285|  -10.132789|  -10.557745|  -10.612316|    0.008405|   -0.279465|    0.005525|   -0.632462|
|       10000|  -10.222132|  -10.140760|  -10.565462|  -10.621065|    0.008405|   -0.279468|    0.005524|   -0.632055|
+-----------------------------------------------------------------------+
|        File Writing Summary       |              Filename             |
+-----------------------------------------------------------------------+
|SU2 binary restart                 |restart.dat                        |
|Paraview                           |vol_solution.vtu                   |
|Paraview surface                   |surface.vtu                        |
+-----------------------------------------------------------------------+
+--------------------------------------------------------------------------------------------------------------------+
|  Inner_Iter|    rms[Rho]|   rms[RhoU]|   rms[RhoV]|   rms[RhoE]|          CD|          CL|         CMz|   LinSolRes|
+--------------------------------------------------------------------------------------------------------------------+
|       10025|  -10.224900|  -10.148795|  -10.573066|  -10.627709|    0.008404|   -0.279472|    0.005522|   -0.635377|
|       10050|  -10.227739|  -10.156769|  -10.580836|  -10.636643|    0.008404|   -0.279475|    0.005520|   -0.635124|
|       10075|  -10.230497|  -10.164807|  -10.588450|  -10.643120|    0.008404|   -0.279479|    0.005519|   -0.638548|
|       10100|  -10.233322|  -10.172789|  -10.596231|  -10.651874|    0.008404|   -0.279482|    0.005517|   -0.638373|
+-----------------------------------------------------------------------+
|        File Writing Summary       |              Filename             |
+-----------------------------------------------------------------------+
|SU2 binary restart                 |restart.dat                        |
|Paraview                           |vol_solution.vtu                   |
|Paraview surface                   |surface.vtu                        |
+-----------------------------------------------------------------------+
+--------------------------------------------------------------------------------------------------------------------+
|  Inner_Iter|    rms[Rho]|   rms[RhoU]|   rms[RhoV]|   rms[RhoE]|          CD|          CL|         CMz|   LinSolRes|
+--------------------------------------------------------------------------------------------------------------------+
|       10125|  -10.236075|  -10.180839|  -10.603874|  -10.658568|    0.008404|   -0.279485|    0.005515|   -0.641760|
|       10150|  -10.238893|  -10.188834|  -10.611697|  -10.667517|    0.008404|   -0.279489|    0.005514|   -0.641690|
|       10175|  -10.241635|  -10.196896|  -10.619351|  -10.674022|    0.008404|   -0.279492|    0.005512|   -0.645236|
|       10200|  -10.244441|  -10.204903|  -10.627165|  -10.682818|    0.008404|   -0.279495|    0.005511|   -0.645170|
+-----------------------------------------------------------------------+
|        File Writing Summary       |              Filename             |
+-----------------------------------------------------------------------+
|SU2 binary restart                 |restart.dat                        |
|Paraview                           |vol_solution.vtu                   |
|Paraview surface                   |surface.vtu                        |
+-----------------------------------------------------------------------+
+--------------------------------------------------------------------------------------------------------------------+
|  Inner_Iter|    rms[Rho]|   rms[RhoU]|   rms[RhoV]|   rms[RhoE]|          CD|          CL|         CMz|   LinSolRes|
+--------------------------------------------------------------------------------------------------------------------+
|       10225|  -10.247179|  -10.212975|  -10.634855|  -10.689499|    0.008404|   -0.279498|    0.005509|   -0.648756|
|       10250|  -10.249978|  -10.220991|  -10.642698|  -10.698492|    0.008404|   -0.279501|    0.005508|   -0.648717|
|       10275|  -10.252706|  -10.229069|  -10.650407|  -10.704985|    0.008403|   -0.279504|    0.005506|   -0.652497|
|       10300|  -10.255493|  -10.237095|  -10.658216|  -10.713815|    0.008403|   -0.279507|    0.005505|   -0.652456|
+-----------------------------------------------------------------------+
|        File Writing Summary       |              Filename             |
+-----------------------------------------------------------------------+
|SU2 binary restart                 |restart.dat                        |
|Paraview                           |vol_solution.vtu                   |
|Paraview surface                   |surface.vtu                        |
+-----------------------------------------------------------------------+
+--------------------------------------------------------------------------------------------------------------------+
|  Inner_Iter|    rms[Rho]|   rms[RhoU]|   rms[RhoV]|   rms[RhoE]|          CD|          CL|         CMz|   LinSolRes|
+--------------------------------------------------------------------------------------------------------------------+
|       10302|  -10.255714|  -10.237738|  -10.658877|  -10.714570|    0.008403|   -0.279507|    0.005505|   -0.652727|

----------------------------- Solver Exit -------------------------------
All convergence criteria satisfied.
+-----------------------------------------------------------------------+
|      Convergence Field     |     Value    |   Criterion  |  Converged |
+-----------------------------------------------------------------------+
|                  Cauchy[CL]|   4.99792e-07|       < 5e-07|         Yes|
+-----------------------------------------------------------------------+
-------------------------------------------------------------------------
+-----------------------------------------------------------------------+
|        File Writing Summary       |              Filename             |
+-----------------------------------------------------------------------+
|SU2 binary restart                 |restart.dat                        |
|Paraview                           |vol_solution.vtu                   |
|Paraview surface                   |surface.vtu                        |
+-----------------------------------------------------------------------+

------------------------- Solver Postprocessing -------------------------
Deleted CNumerics container.
Deleted CIntegration container.
Deleted CSolver container.
Deleted CIteration container.
Deleted CInterface container.
Deleted CGeometry container.
Deleted CFreeFormDefBox class.
Deleted CSurfaceMovement class.
Deleted CVolumetricMovement class.
Deleted CConfig container.
Deleted nInst container.
Deleted COutput class.
-------------------------------------------------------------------------

------------------------- Exit Success (SU2_CFD) ------------------------

