WARNING: The current SST-1994m model is inconsistent with literature. We recommend using the SST-2003m model.
In SU2 v8 the 2003m model will become default, and the inconsistency will be fixed.

-------------------------------------------------------------------------
|    ___ _   _ ___                                                      |
|   / __| | | |_  )   Release 7.4.0 "Blackbird"                         |
|   \__ \ |_| |/ /                                                      |
|   |___/\___//___|   Suite (Computational Fluid Dynamics Code)         |
|                                                                       |
-------------------------------------------------------------------------
| SU2 Project Website: https://su2code.github.io                        |
|                                                                       |
| The SU2 Project is maintained by the SU2 Foundation                   |
| (http://su2foundation.org)                                            |
-------------------------------------------------------------------------
| Copyright 2012-2022, SU2 Contributors                                 |
|                                                                       |
| SU2 is free software; you can redistribute it and/or                  |
| modify it under the terms of the GNU Lesser General Public            |
| License as published by the Free Software Foundation; either          |
| version 2.1 of the License, or (at your option) any later version.    |
|                                                                       |
| SU2 is distributed in the hope that it will be useful,                |
| but WITHOUT ANY WARRANTY; without even the implied warranty of        |
| MERCHANTABILITY or FITNESS FOR A PARTICULAR PURPOSE. See the GNU      |
| Lesser General Public License for more details.                       |
|                                                                       |
| You should have received a copy of the GNU Lesser General Public      |
| License along with SU2. If not, see <http://www.gnu.org/licenses/>.   |
-------------------------------------------------------------------------
WARNING: The current SST-1994m model is inconsistent with literature. We recommend using the SST-2003m model.
In SU2 v8 the 2003m model will become default, and the inconsistency will be fixed.

Parsing config file for zone 0
WARNING: The current SST-1994m model is inconsistent with literature. We recommend using the SST-2003m model.
In SU2 v8 the 2003m model will become default, and the inconsistency will be fixed.

----------------- Physical Case Definition ( Zone 0 ) -------------------
Compressible RANS equations.
Turbulence model: Menter's k-omega SST-1994m with no production modification.
Hybrid RANS/LES: No Hybrid RANS/LES
Mach number: 0.21.
Angle of attack (AoA): -5 deg, and angle of sideslip (AoS): 0 deg.
Reynolds number: 1.28186e+07. Reference length 2.62.
No restart solution, use the values at infinity (freestream).
Non-Dimensional simulation (V=Mach, Rho=1.0, T=1.0 at the farfield).
The reference area is 2.62 m^2.
The semi-span will be computed using the max y(3D) value.
The reference length is 2.62 m.
Reference origin for moment evaluation is (0, 0, 0).
Surface(s) where the force coefficients are evaluated: wall.

Surface(s) plotted in the output file: wall.
Input mesh file name: su2meshEx.su2

--------------- Space Numerical Integration ( Zone 0 ) ------------------
Roe (with entropy fix = 1e-05) solver for the flow inviscid terms.
Standard Roe without low-dissipation function.
Second order integration in space, with slope limiter.
Van Albada slope-limiting method implemented by edges.
Scalar upwind solver for the turbulence model.
First order integration in space.
Average of gradients with correction (viscous flow terms).
Average of gradients with correction (viscous turbulence terms).
Gradient for upwind reconstruction: Green-Gauss.
Gradient for viscous and source terms: Green-Gauss.

--------------- Time Numerical Integration  ( Zone 0 ) ------------------
Local time stepping (steady state simulation).
Euler implicit method for the flow equations.
FGMRES is used for solving the linear system.
Using a ILU(0) preconditioning.
Convergence criteria of the linear solver: 0.2.
Max number of linear iterations: 4.
CFL adaptation. Factor down: 0.1, factor up: 1.2,
                lower limit: 25, upper limit: 1000,
                acceptable linear residual: 0.001.
Courant-Friedrichs-Lewy number:       25
Euler implicit time integration for the turbulence model.

------------------ Convergence Criteria  ( Zone 0 ) ---------------------
Maximum number of solver subiterations: 25000.
Begin convergence monitoring at iteration 10.
Residual minimum value: 1e-11.5.
Cauchy series min. value: 5e-07.
Number of Cauchy elements: 500.
Begin windowed time average at iteration 0.

-------------------- Output Information ( Zone 0 ) ----------------------
File writing frequency: 
+------------------------------------+
|                     File| Frequency|
+------------------------------------+
|                  RESTART|       100|
|                 PARAVIEW|       100|
|         SURFACE_PARAVIEW|       100|
+------------------------------------+
Writing the convergence history file every 1 inner iterations.
Writing the screen convergence history every 25 inner iterations.
The tabular file format is CSV (.csv).
Convergence history file name: history.
Forces breakdown file name: forces_breakdown.dat.
Surface file name: surface.
Volume file name: vol_solution.
Restart file name: restart.dat.

------------- Config File Boundary Information ( Zone 0 ) ---------------
+-----------------------------------------------------------------------+
|                        Marker Type|                        Marker Name|
+-----------------------------------------------------------------------+
|                          Far-field|                          far-field|
+-----------------------------------------------------------------------+
|                     Heat flux wall|                               wall|
+-----------------------------------------------------------------------+

-------------------- Output Preprocessing ( Zone 0 ) --------------------

WARNING: SURFACE_PRESSURE_DROP can only be computed for at least 2 surfaces (outlet, inlet, ...)

  Info: Ignoring the following screen output fields:
  RMS_NU_TILDE
Screen output fields: INNER_ITER, RMS_DENSITY, RMS_MOMENTUM-X, RMS_MOMENTUM-Y, RMS_ENERGY, DRAG, LIFT, MOMENT_Z, LINSOL_RESIDUAL
History output group(s): ITER, RMS_RES, AERO_COEFF
Convergence field(s): LIFT
Warning: No (valid) fields chosen for time convergence monitoring. Time convergence monitoring inactive.
Volume output fields: COORDINATES, SOLUTION, PRIMITIVE

------------------- Geometry Preprocessing ( Zone 0 ) -------------------
Two dimensional problem.
66015 grid points before partitioning.
65610 volume elements before partitioning.
2 surface markers.
405 boundary elements in index 0 (Marker = far-field).
405 boundary elements in index 1 (Marker = wall).
Executing the partitioning functions.
Building the graph adjacency structure.
Calling ParMETIS... graph partitioning complete (888 edge cuts).
Distributing ParMETIS coloring.
Rebalancing vertices.
Rebalancing volume element connectivity.
Rebalancing markers and surface elements.
67791 vertices including ghost points. 
66494 interior elements including halo cells. 
66494 quadrilaterals.
Establishing MPI communication patterns.
Setting point connectivity.
Renumbering points (Reverse Cuthill McKee Ordering).
Recomputing point connectivity.
Setting element connectivity.
Checking the numerical grid orientation.
All volume elements are correctly orientend.
All surface elements are correctly orientend.
Identifying edges and vertices.
Setting the control volume structure.
Area of the computational grid: 177681.
Searching for the closest normal neighbors to the surfaces.
Storing a mapping from global to local point index.
Compute the surface curvature.
Max K: 1084.38. Mean K: 3.59037. Standard deviation K: 49.7608.
Checking for periodicity.
Computing mesh quality statistics for the dual control volumes.
+--------------------------------------------------------------+
|           Mesh Quality Metric|        Minimum|        Maximum|
+--------------------------------------------------------------+
|    Orthogonality Angle (deg.)|         82.757|             90|
|     CV Face Area Aspect Ratio|        1.00372|        11629.9|
|           CV Sub-Volume Ratio|              1|        2.23945|
+--------------------------------------------------------------+
Finding max control volume width.
Communicating number of neighbors.
Wetted area = 5.32649 m.
Area projection in the x-plane = 0.29702 m, y-plane = 2.61984 m.
Max. coordinate in the x-direction = 2.62 m, y-direction = 0.165086 m.
Min. coordinate in the x-direction = 0 m, y-direction = -0.119236 m.
Computing wall distances.

-------------------- Solver Preprocessing ( Zone 0 ) --------------------
Viscous flow: Computing pressure using the ideal gas law
based on the free-stream temperature and a density computed
from the Reynolds number.
Force coefficients computed using free-stream values.

-- Models:
+------------------------------------------------------------------------------+
|          Viscosity Model|        Conductivity Model|              Fluid Model|
+------------------------------------------------------------------------------+
|               SUTHERLAND|          CONSTANT_PRANDTL|             STANDARD_AIR|
+------------------------------------------------------------------------------+
-- Fluid properties:
+------------------------------------------------------------------------------+
|                  Name|    Dim. value|    Ref. value|      Unit|Non-dim. value|
+------------------------------------------------------------------------------+
|        Ref. Viscosity|     1.716e-05|       416.883|   N.s/m^2|   4.11626e-08|
|      Sutherland Temp.|        273.15|        288.16|         K|      0.947911|
|     Sutherland Const.|         110.4|        288.16|         K|       0.38312|
+------------------------------------------------------------------------------+
|        Prandtl (Lam.)|             -|             -|         -|          0.72|
|       Prandtl (Turb.)|             -|             -|         -|           0.9|
+------------------------------------------------------------------------------+
|          Gas Constant|       287.058|       401.881|  N.m/kg.K|      0.714286|
|      Spec. Heat Ratio|             -|             -|         -|           1.4|
+------------------------------------------------------------------------------+
-- Initial and free-stream conditions:
+------------------------------------------------------------------------------+
|                  Name|    Dim. value|    Ref. value|      Unit|Non-dim. value|
+------------------------------------------------------------------------------+
|       Static Pressure|        101333|        141867|        Pa|      0.714286|
|               Density|       1.22504|       1.22504|    kg/m^3|             1|
|           Temperature|        288.16|        288.16|         K|             1|
|          Total Energy|        209369|        115806|   m^2/s^2|       1.80793|
|            Velocity-X|       71.1917|       340.303|       m/s|      0.209201|
|            Velocity-Y|      -6.22846|       340.303|       m/s|    -0.0183027|
|    Velocity Magnitude|       71.4636|       340.303|       m/s|          0.21|
+------------------------------------------------------------------------------+
|             Viscosity|   1.78935e-05|       416.883|   N.s/m^2|    4.2922e-08|
|          Conductivity|             -|        167537|   W/m^2.K|             -|
|     Turb. Kin. Energy|       19.1514|        115806|   m^2/s^2|   0.000165375|
|     Spec. Dissipation|        131116|       340.303|       1/s|       385.292|
+------------------------------------------------------------------------------+
|           Mach Number|             -|             -|         -|          0.21|
|       Reynolds Number|             -|             -|         -|   1.28186e+07|
+------------------------------------------------------------------------------+
Initialize Jacobian structure (Navier-Stokes). MG level: 0.
Initialize Jacobian structure (SST model).

------------------- Numerics Preprocessing ( Zone 0 ) -------------------

----------------- Integration Preprocessing ( Zone 0 ) ------------------

------------------- Iteration Preprocessing ( Zone 0 ) ------------------
Euler/Navier-Stokes/RANS fluid iteration.

------------------------------ Begin Solver -----------------------------

Simulation Run using the Single-zone Driver
WARNING: SU2 was not compiled for an AVX-capable architecture.
+--------------------------------------------------------------------------------------------------------------------+
|  Inner_Iter|    rms[Rho]|   rms[RhoU]|   rms[RhoV]|   rms[RhoE]|          CD|          CL|         CMz|   LinSolRes|
+--------------------------------------------------------------------------------------------------------------------+
|           0|   -4.426283|  -15.603614|  -15.604731|   -4.024501|    0.701409|   -1.532988|   -0.633145|   -0.789766|
|          25|   -5.097665|   -5.138221|   -5.094288|   -4.704215|   -0.028235|    0.584302|    0.472966|   -0.655811|
|          50|   -5.300886|   -5.336177|   -5.359923|   -4.907083|   -0.025712|    0.205257|    0.302511|   -0.987269|
|          75|   -5.671003|   -5.496028|   -5.829154|   -5.272066|    0.004797|   -0.110947|    0.116326|   -0.570174|
|         100|   -6.165154|   -5.634671|   -5.931900|   -5.766898|    0.034951|   -0.420355|   -0.059995|   -0.687006|
+-----------------------------------------------------------------------+
|        File Writing Summary       |              Filename             |
+-----------------------------------------------------------------------+
|SU2 binary restart                 |restart.dat                        |
|Paraview                           |vol_solution.vtu                   |
|Paraview surface                   |surface.vtu                        |
+-----------------------------------------------------------------------+
+--------------------------------------------------------------------------------------------------------------------+
|  Inner_Iter|    rms[Rho]|   rms[RhoU]|   rms[RhoV]|   rms[RhoE]|          CD|          CL|         CMz|   LinSolRes|
+--------------------------------------------------------------------------------------------------------------------+
|         125|   -6.123709|   -5.911295|   -6.058072|   -5.735108|    0.020381|   -0.203769|    0.028245|   -0.712541|
|         150|   -6.422707|   -6.183927|   -6.427873|   -6.019959|    0.010895|   -0.154138|    0.059362|   -0.625032|
|         175|   -6.739844|   -6.288843|   -6.509778|   -6.349985|    0.011555|   -0.155559|    0.065860|   -0.684224|
|         200|   -6.730171|   -6.441880|   -6.645914|   -6.338908|    0.016637|   -0.222387|    0.034406|   -0.778630|
+-----------------------------------------------------------------------+
|        File Writing Summary       |              Filename             |
+-----------------------------------------------------------------------+
|SU2 binary restart                 |restart.dat                        |
|Paraview                           |vol_solution.vtu                   |
|Paraview surface                   |surface.vtu                        |
+-----------------------------------------------------------------------+
+--------------------------------------------------------------------------------------------------------------------+
|  Inner_Iter|    rms[Rho]|   rms[RhoU]|   rms[RhoV]|   rms[RhoE]|          CD|          CL|         CMz|   LinSolRes|
+--------------------------------------------------------------------------------------------------------------------+
|         225|   -6.938966|   -6.620341|   -6.808495|   -6.554106|    0.017613|   -0.237875|    0.020818|   -0.984939|
|         250|   -7.276486|   -6.832100|   -7.163163|   -6.880520|    0.013332|   -0.207809|    0.037961|   -0.541554|
|         275|   -7.342093|   -6.966590|   -7.232236|   -6.939677|    0.014719|   -0.226567|    0.031260|   -0.699237|
|         300|   -7.311597|   -7.048922|   -7.350663|   -6.913557|    0.013943|   -0.225539|    0.029390|   -0.879132|
+-----------------------------------------------------------------------+
|        File Writing Summary       |              Filename             |
+-----------------------------------------------------------------------+
|SU2 binary restart                 |restart.dat                        |
|Paraview                           |vol_solution.vtu                   |
|Paraview surface                   |surface.vtu                        |
+-----------------------------------------------------------------------+
+--------------------------------------------------------------------------------------------------------------------+
|  Inner_Iter|    rms[Rho]|   rms[RhoU]|   rms[RhoV]|   rms[RhoE]|          CD|          CL|         CMz|   LinSolRes|
+--------------------------------------------------------------------------------------------------------------------+
|         325|   -7.378354|   -7.129641|   -7.389168|   -6.977273|    0.013239|   -0.221244|    0.033724|   -0.651303|
|         350|   -7.488745|   -7.210854|   -7.574771|   -7.090163|    0.013752|   -0.231645|    0.027507|   -0.529202|
|         375|   -7.632232|   -7.233714|   -7.623841|   -7.233272|    0.012760|   -0.223894|    0.032445|   -0.849605|
|         400|   -7.793395|   -7.299283|   -7.668800|   -7.407732|    0.013284|   -0.232286|    0.027744|   -0.783821|
+-----------------------------------------------------------------------+
|        File Writing Summary       |              Filename             |
+-----------------------------------------------------------------------+
|SU2 binary restart                 |restart.dat                        |
|Paraview                           |vol_solution.vtu                   |
|Paraview surface                   |surface.vtu                        |
+-----------------------------------------------------------------------+
+--------------------------------------------------------------------------------------------------------------------+
|  Inner_Iter|    rms[Rho]|   rms[RhoU]|   rms[RhoV]|   rms[RhoE]|          CD|          CL|         CMz|   LinSolRes|
+--------------------------------------------------------------------------------------------------------------------+
|         425|   -8.029505|   -7.353578|   -7.812626|   -7.612764|    0.012444|   -0.227295|    0.031065|   -0.779812|
|         450|   -8.095526|   -7.373529|   -8.007519|   -7.688897|    0.012818|   -0.232629|    0.028007|   -0.587769|
|         475|   -8.092615|   -7.427335|   -7.961129|   -7.679494|    0.012248|   -0.230051|    0.029926|   -0.629399|
|         500|   -8.083459|   -7.428524|   -7.966926|   -7.689052|    0.012347|   -0.232927|    0.028219|   -0.765378|
+-----------------------------------------------------------------------+
|        File Writing Summary       |              Filename             |
+-----------------------------------------------------------------------+
|SU2 binary restart                 |restart.dat                        |
|Paraview                           |vol_solution.vtu                   |
|Paraview surface                   |surface.vtu                        |
+-----------------------------------------------------------------------+
+--------------------------------------------------------------------------------------------------------------------+
|  Inner_Iter|    rms[Rho]|   rms[RhoU]|   rms[RhoV]|   rms[RhoE]|          CD|          CL|         CMz|   LinSolRes|
+--------------------------------------------------------------------------------------------------------------------+
|         525|   -8.147086|   -7.478691|   -8.059288|   -7.738397|    0.012072|   -0.231997|    0.029095|   -0.610953|
|         550|   -8.196298|   -7.503208|   -8.229539|   -7.789652|    0.012020|   -0.233683|    0.028126|   -0.601851|
|         575|   -8.282906|   -7.515672|   -8.195177|   -7.875211|    0.011837|   -0.233380|    0.028540|   -0.573925|
|         600|   -8.317018|   -7.537904|   -8.191493|   -7.924799|    0.011776|   -0.234356|    0.027990|   -0.743888|
+-----------------------------------------------------------------------+
|        File Writing Summary       |              Filename             |
+-----------------------------------------------------------------------+
|SU2 binary restart                 |restart.dat                        |
|Paraview                           |vol_solution.vtu                   |
|Paraview surface                   |surface.vtu                        |
+-----------------------------------------------------------------------+
+--------------------------------------------------------------------------------------------------------------------+
|  Inner_Iter|    rms[Rho]|   rms[RhoU]|   rms[RhoV]|   rms[RhoE]|          CD|          CL|         CMz|   LinSolRes|
+--------------------------------------------------------------------------------------------------------------------+
|         625|   -8.520554|   -7.561763|   -8.309648|   -8.086599|    0.011639|   -0.234693|    0.028034|   -0.781895|
|         650|   -8.544683|   -7.572877|   -8.436720|   -8.145179|    0.011540|   -0.235048|    0.027832|   -0.757184|
|         675|   -8.629580|   -7.598156|   -8.384359|   -8.208806|    0.011464|   -0.235799|    0.027608|   -0.739156|
|         700|   -8.602236|   -7.611009|   -8.446762|   -8.193820|    0.011324|   -0.235899|    0.027585|   -0.720649|
+-----------------------------------------------------------------------+
|        File Writing Summary       |              Filename             |
+-----------------------------------------------------------------------+
|SU2 binary restart                 |restart.dat                        |
|Paraview                           |vol_solution.vtu                   |
|Paraview surface                   |surface.vtu                        |
+-----------------------------------------------------------------------+
+--------------------------------------------------------------------------------------------------------------------+
|  Inner_Iter|    rms[Rho]|   rms[RhoU]|   rms[RhoV]|   rms[RhoE]|          CD|          CL|         CMz|   LinSolRes|
+--------------------------------------------------------------------------------------------------------------------+
|         725|   -8.647294|   -7.625155|   -8.451909|   -8.241258|    0.011279|   -0.236669|    0.027287|   -0.786507|
|         750|   -8.632567|   -7.639858|   -8.427028|   -8.234082|    0.011166|   -0.236657|    0.027347|   -0.798290|
|         775|   -8.655338|   -7.650200|   -8.472845|   -8.258961|    0.011123|   -0.237261|    0.027070|   -0.812576|
|         800|   -8.696448|   -7.658670|   -8.478955|   -8.299516|    0.011053|   -0.237466|    0.027040|   -0.886345|
+-----------------------------------------------------------------------+
|        File Writing Summary       |              Filename             |
+-----------------------------------------------------------------------+
|SU2 binary restart                 |restart.dat                        |
|Paraview                           |vol_solution.vtu                   |
|Paraview surface                   |surface.vtu                        |
+-----------------------------------------------------------------------+
+--------------------------------------------------------------------------------------------------------------------+
|  Inner_Iter|    rms[Rho]|   rms[RhoU]|   rms[RhoV]|   rms[RhoE]|          CD|          CL|         CMz|   LinSolRes|
+--------------------------------------------------------------------------------------------------------------------+
|         825|   -8.692900|   -7.670000|   -8.482739|   -8.308406|    0.010983|   -0.237691|    0.026954|   -0.887767|
|         850|   -8.730933|   -7.681033|   -8.502672|   -8.345853|    0.010938|   -0.238154|    0.026766|   -0.879983|
|         875|   -8.745777|   -7.688649|   -8.518736|   -8.359335|    0.010865|   -0.238284|    0.026756|   -0.880722|
|         900|   -8.731456|   -7.696816|   -8.540550|   -8.356120|    0.010813|   -0.238589|    0.026625|   -0.895519|
+-----------------------------------------------------------------------+
|        File Writing Summary       |              Filename             |
+-----------------------------------------------------------------------+
|SU2 binary restart                 |restart.dat                        |
|Paraview                           |vol_solution.vtu                   |
|Paraview surface                   |surface.vtu                        |
+-----------------------------------------------------------------------+
+--------------------------------------------------------------------------------------------------------------------+
|  Inner_Iter|    rms[Rho]|   rms[RhoU]|   rms[RhoV]|   rms[RhoE]|          CD|          CL|         CMz|   LinSolRes|
+--------------------------------------------------------------------------------------------------------------------+
|         925|   -8.755582|   -7.706947|   -8.543946|   -8.379341|    0.010766|   -0.238938|    0.026499|   -0.887366|
|         950|   -8.768405|   -7.715588|   -8.567757|   -8.391938|    0.010697|   -0.239079|    0.026469|   -0.885894|
|         975|   -8.759367|   -7.722520|   -8.582839|   -8.389476|    0.010652|   -0.239388|    0.026341|   -0.903555|
|        1000|   -8.770834|   -7.730486|   -8.588543|   -8.399942|    0.010602|   -0.239647|    0.026254|   -0.898623|
+-----------------------------------------------------------------------+
|        File Writing Summary       |              Filename             |
+-----------------------------------------------------------------------+
|SU2 binary restart                 |restart.dat                        |
|Paraview                           |vol_solution.vtu                   |
|Paraview surface                   |surface.vtu                        |
+-----------------------------------------------------------------------+
+--------------------------------------------------------------------------------------------------------------------+
|  Inner_Iter|    rms[Rho]|   rms[RhoU]|   rms[RhoV]|   rms[RhoE]|          CD|          CL|         CMz|   LinSolRes|
+--------------------------------------------------------------------------------------------------------------------+
|        1025|   -8.776808|   -7.738350|   -8.601707|   -8.408159|    0.010544|   -0.239814|    0.026204|   -0.898061|
|        1050|   -8.759097|   -7.744820|   -8.607073|   -8.389493|    0.010500|   -0.240089|    0.026095|   -0.848861|
|        1075|   -8.776308|   -7.751110|   -8.618375|   -8.405882|    0.010451|   -0.240289|    0.026032|   -0.885110|
|        1100|   -8.730667|   -7.757335|   -8.601563|   -8.362373|    0.010401|   -0.240466|    0.025970|   -0.825176|
+-----------------------------------------------------------------------+
|        File Writing Summary       |              Filename             |
+-----------------------------------------------------------------------+
|SU2 binary restart                 |restart.dat                        |
|Paraview                           |vol_solution.vtu                   |
|Paraview surface                   |surface.vtu                        |
+-----------------------------------------------------------------------+
+--------------------------------------------------------------------------------------------------------------------+
|  Inner_Iter|    rms[Rho]|   rms[RhoU]|   rms[RhoV]|   rms[RhoE]|          CD|          CL|         CMz|   LinSolRes|
+--------------------------------------------------------------------------------------------------------------------+
|        1125|   -8.771982|   -7.763709|   -8.635093|   -8.401130|    0.010359|   -0.240703|    0.025878|   -0.852627|
|        1150|   -8.778988|   -7.769458|   -8.646333|   -8.406589|    0.010313|   -0.240871|    0.025824|   -0.702885|
|        1175|   -8.742732|   -7.774666|   -8.628041|   -8.374242|    0.010270|   -0.241047|    0.025758|   -0.819637|
|        1200|   -8.784902|   -7.780683|   -8.663200|   -8.412896|    0.010232|   -0.241249|    0.025681|   -0.717084|
+-----------------------------------------------------------------------+
|        File Writing Summary       |              Filename             |
+-----------------------------------------------------------------------+
|SU2 binary restart                 |restart.dat                        |
|Paraview                           |vol_solution.vtu                   |
|Paraview surface                   |surface.vtu                        |
+-----------------------------------------------------------------------+
+--------------------------------------------------------------------------------------------------------------------+
|  Inner_Iter|    rms[Rho]|   rms[RhoU]|   rms[RhoV]|   rms[RhoE]|          CD|          CL|         CMz|   LinSolRes|
+--------------------------------------------------------------------------------------------------------------------+
|        1225|   -8.760117|   -7.786300|   -8.642699|   -8.391455|    0.010191|   -0.241405|    0.025625|   -0.811843|
|        1250|   -8.795692|   -7.792002|   -8.676465|   -8.423131|    0.010153|   -0.241571|    0.025560|   -0.751468|
|        1275|   -8.776032|   -7.797352|   -8.659042|   -8.410069|    0.010118|   -0.241755|    0.025485|   -0.711889|
|        1300|   -8.796527|   -7.802901|   -8.675964|   -8.421058|    0.010083|   -0.241914|    0.025422|   -0.751606|
+-----------------------------------------------------------------------+
|        File Writing Summary       |              Filename             |
+-----------------------------------------------------------------------+
|SU2 binary restart                 |restart.dat                        |
|Paraview                           |vol_solution.vtu                   |
|Paraview surface                   |surface.vtu                        |
+-----------------------------------------------------------------------+
+--------------------------------------------------------------------------------------------------------------------+
|  Inner_Iter|    rms[Rho]|   rms[RhoU]|   rms[RhoV]|   rms[RhoE]|          CD|          CL|         CMz|   LinSolRes|
+--------------------------------------------------------------------------------------------------------------------+
|        1325|   -8.786634|   -7.808324|   -8.669026|   -8.421720|    0.010049|   -0.242083|    0.025348|   -0.715431|
|        1350|   -8.805907|   -7.813763|   -8.678941|   -8.432745|    0.010020|   -0.242266|    0.025267|   -0.771567|
|        1375|   -8.782975|   -7.818993|   -8.651937|   -8.416776|    0.009989|   -0.242429|    0.025195|   -0.823995|
|        1400|   -8.815647|   -7.824931|   -8.675647|   -8.447100|    0.009961|   -0.242611|    0.025108|   -0.776766|
+-----------------------------------------------------------------------+
|        File Writing Summary       |              Filename             |
+-----------------------------------------------------------------------+
|SU2 binary restart                 |restart.dat                        |
|Paraview                           |vol_solution.vtu                   |
|Paraview surface                   |surface.vtu                        |
+-----------------------------------------------------------------------+
+--------------------------------------------------------------------------------------------------------------------+
|  Inner_Iter|    rms[Rho]|   rms[RhoU]|   rms[RhoV]|   rms[RhoE]|          CD|          CL|         CMz|   LinSolRes|
+--------------------------------------------------------------------------------------------------------------------+
|        1425|   -8.795177|   -7.830340|   -8.656498|   -8.430567|    0.009935|   -0.242799|    0.025019|   -0.701272|
|        1450|   -8.789994|   -7.835601|   -8.637005|   -8.425094|    0.009910|   -0.242979|    0.024931|   -0.829483|
|        1475|   -8.797603|   -7.841211|   -8.644595|   -8.433281|    0.009886|   -0.243177|    0.024831|   -0.721437|
|        1500|   -8.792776|   -7.846341|   -8.630759|   -8.427837|    0.009864|   -0.243389|    0.024722|   -0.843350|
+-----------------------------------------------------------------------+
|        File Writing Summary       |              Filename             |
+-----------------------------------------------------------------------+
|SU2 binary restart                 |restart.dat                        |
|Paraview                           |vol_solution.vtu                   |
|Paraview surface                   |surface.vtu                        |
+-----------------------------------------------------------------------+
+--------------------------------------------------------------------------------------------------------------------+
|  Inner_Iter|    rms[Rho]|   rms[RhoU]|   rms[RhoV]|   rms[RhoE]|          CD|          CL|         CMz|   LinSolRes|
+--------------------------------------------------------------------------------------------------------------------+
|        1525|   -8.828069|   -7.851622|   -8.636957|   -8.471517|    0.009842|   -0.243592|    0.024618|   -0.712015|
|        1550|   -8.848130|   -7.856446|   -8.632726|   -8.499520|    0.009823|   -0.243810|    0.024505|   -0.896728|
|        1575|   -8.846878|   -7.860800|   -8.617652|   -8.498413|    0.009804|   -0.244052|    0.024377|   -0.866877|
|        1600|   -8.837994|   -7.864577|   -8.601762|   -8.489136|    0.009785|   -0.244308|    0.024237|   -0.834450|
+-----------------------------------------------------------------------+
|        File Writing Summary       |              Filename             |
+-----------------------------------------------------------------------+
|SU2 binary restart                 |restart.dat                        |
|Paraview                           |vol_solution.vtu                   |
|Paraview surface                   |surface.vtu                        |
+-----------------------------------------------------------------------+
+--------------------------------------------------------------------------------------------------------------------+
|  Inner_Iter|    rms[Rho]|   rms[RhoU]|   rms[RhoV]|   rms[RhoE]|          CD|          CL|         CMz|   LinSolRes|
+--------------------------------------------------------------------------------------------------------------------+
|        1625|   -8.830510|   -7.867696|   -8.588082|   -8.481745|    0.009769|   -0.244575|    0.024092|   -0.799090|
|        1650|   -8.822937|   -7.870131|   -8.574138|   -8.472867|    0.009752|   -0.244855|    0.023938|   -0.760353|
|        1675|   -8.813409|   -7.872017|   -8.560492|   -8.462558|    0.009736|   -0.245145|    0.023779|   -0.731936|
|        1700|   -8.805362|   -7.873320|   -8.546401|   -8.453681|    0.009721|   -0.245447|    0.023613|   -0.706017|
+-----------------------------------------------------------------------+
|        File Writing Summary       |              Filename             |
+-----------------------------------------------------------------------+
|SU2 binary restart                 |restart.dat                        |
|Paraview                           |vol_solution.vtu                   |
|Paraview surface                   |surface.vtu                        |
+-----------------------------------------------------------------------+
+--------------------------------------------------------------------------------------------------------------------+
|  Inner_Iter|    rms[Rho]|   rms[RhoU]|   rms[RhoV]|   rms[RhoE]|          CD|          CL|         CMz|   LinSolRes|
+--------------------------------------------------------------------------------------------------------------------+
|        1725|   -8.797994|   -7.873807|   -8.532840|   -8.445929|    0.009705|   -0.245736|    0.023459|   -0.797323|
|        1750|   -8.831206|   -7.873938|   -8.532260|   -8.487298|    0.009689|   -0.246059|    0.023281|   -0.809628|
|        1775|   -8.827456|   -7.872979|   -8.519673|   -8.481347|    0.009674|   -0.246397|    0.023096|   -0.785283|
|        1800|   -8.817843|   -7.871586|   -8.509140|   -8.476443|    0.009658|   -0.246737|    0.022910|   -0.792282|
+-----------------------------------------------------------------------+
|        File Writing Summary       |              Filename             |
+-----------------------------------------------------------------------+
|SU2 binary restart                 |restart.dat                        |
|Paraview                           |vol_solution.vtu                   |
|Paraview surface                   |surface.vtu                        |
+-----------------------------------------------------------------------+
+--------------------------------------------------------------------------------------------------------------------+
|  Inner_Iter|    rms[Rho]|   rms[RhoU]|   rms[RhoV]|   rms[RhoE]|          CD|          CL|         CMz|   LinSolRes|
+--------------------------------------------------------------------------------------------------------------------+
|        1825|   -8.818533|   -7.870130|   -8.508405|   -8.475006|    0.009643|   -0.247086|    0.022721|   -0.749856|
|        1850|   -8.804204|   -7.868261|   -8.499844|   -8.461109|    0.009628|   -0.247450|    0.022522|   -0.759896|
|        1875|   -8.808591|   -7.866874|   -8.500972|   -8.463675|    0.009611|   -0.247810|    0.022326|   -0.717506|
|        1900|   -8.791716|   -7.865135|   -8.492691|   -8.446646|    0.009596|   -0.248182|    0.022124|   -0.741049|
+-----------------------------------------------------------------------+
|        File Writing Summary       |              Filename             |
+-----------------------------------------------------------------------+
|SU2 binary restart                 |restart.dat                        |
|Paraview                           |vol_solution.vtu                   |
|Paraview surface                   |surface.vtu                        |
+-----------------------------------------------------------------------+
+--------------------------------------------------------------------------------------------------------------------+
|  Inner_Iter|    rms[Rho]|   rms[RhoU]|   rms[RhoV]|   rms[RhoE]|          CD|          CL|         CMz|   LinSolRes|
+--------------------------------------------------------------------------------------------------------------------+
|        1925|   -8.797033|   -7.863835|   -8.494828|   -8.450366|    0.009580|   -0.248555|    0.021923|   -0.705135|
|        1950|   -8.794114|   -7.862744|   -8.492755|   -8.447564|    0.009562|   -0.248923|    0.021724|   -0.783028|
|        1975|   -8.812054|   -7.862134|   -8.495827|   -8.474498|    0.009545|   -0.249286|    0.021532|   -0.780945|
|        2000|   -8.810363|   -7.861588|   -8.495451|   -8.472492|    0.009528|   -0.249674|    0.021321|   -0.768859|
+-----------------------------------------------------------------------+
|        File Writing Summary       |              Filename             |
+-----------------------------------------------------------------------+
|SU2 binary restart                 |restart.dat                        |
|Paraview                           |vol_solution.vtu                   |
|Paraview surface                   |surface.vtu                        |
+-----------------------------------------------------------------------+
+--------------------------------------------------------------------------------------------------------------------+
|  Inner_Iter|    rms[Rho]|   rms[RhoU]|   rms[RhoV]|   rms[RhoE]|          CD|          CL|         CMz|   LinSolRes|
+--------------------------------------------------------------------------------------------------------------------+
|        2025|   -8.810127|   -7.861296|   -8.494710|   -8.471590|    0.009510|   -0.250056|    0.021116|   -0.760467|
|        2050|   -8.805992|   -7.861642|   -8.496426|   -8.467076|    0.009492|   -0.250432|    0.020914|   -0.754363|
|        2075|   -8.804774|   -7.862808|   -8.499973|   -8.465722|    0.009474|   -0.250812|    0.020711|   -0.747191|
|        2100|   -8.806941|   -7.864892|   -8.503428|   -8.467663|    0.009456|   -0.251185|    0.020512|   -0.747563|
+-----------------------------------------------------------------------+
|        File Writing Summary       |              Filename             |
+-----------------------------------------------------------------------+
|SU2 binary restart                 |restart.dat                        |
|Paraview                           |vol_solution.vtu                   |
|Paraview surface                   |surface.vtu                        |
+-----------------------------------------------------------------------+
+--------------------------------------------------------------------------------------------------------------------+
|  Inner_Iter|    rms[Rho]|   rms[RhoU]|   rms[RhoV]|   rms[RhoE]|          CD|          CL|         CMz|   LinSolRes|
+--------------------------------------------------------------------------------------------------------------------+
|        2125|   -8.807472|   -7.868119|   -8.508098|   -8.468853|    0.009437|   -0.251552|    0.020316|   -0.751775|
|        2150|   -8.810058|   -7.872244|   -8.513277|   -8.471955|    0.009419|   -0.251922|    0.020119|   -0.753324|
|        2175|   -8.813849|   -7.876807|   -8.518943|   -8.476384|    0.009399|   -0.252279|    0.019929|   -0.754300|
|        2200|   -8.819958|   -7.881762|   -8.526640|   -8.484319|    0.009380|   -0.252633|    0.019741|   -0.747100|
+-----------------------------------------------------------------------+
|        File Writing Summary       |              Filename             |
+-----------------------------------------------------------------------+
|SU2 binary restart                 |restart.dat                        |
|Paraview                           |vol_solution.vtu                   |
|Paraview surface                   |surface.vtu                        |
+-----------------------------------------------------------------------+
+--------------------------------------------------------------------------------------------------------------------+
|  Inner_Iter|    rms[Rho]|   rms[RhoU]|   rms[RhoV]|   rms[RhoE]|          CD|          CL|         CMz|   LinSolRes|
+--------------------------------------------------------------------------------------------------------------------+
|        2225|   -8.826304|   -7.887246|   -8.534018|   -8.491640|    0.009361|   -0.252983|    0.019555|   -0.741313|
|        2250|   -8.831088|   -7.893103|   -8.542075|   -8.496918|    0.009342|   -0.253324|    0.019374|   -0.731896|
|        2275|   -8.836315|   -7.899415|   -8.549605|   -8.502955|    0.009323|   -0.253662|    0.019195|   -0.725586|
|        2300|   -8.841343|   -7.906108|   -8.557034|   -8.508281|    0.009304|   -0.253993|    0.019019|   -0.724505|
+-----------------------------------------------------------------------+
|        File Writing Summary       |              Filename             |
+-----------------------------------------------------------------------+
|SU2 binary restart                 |restart.dat                        |
|Paraview                           |vol_solution.vtu                   |
|Paraview surface                   |surface.vtu                        |
+-----------------------------------------------------------------------+
+--------------------------------------------------------------------------------------------------------------------+
|  Inner_Iter|    rms[Rho]|   rms[RhoU]|   rms[RhoV]|   rms[RhoE]|          CD|          CL|         CMz|   LinSolRes|
+--------------------------------------------------------------------------------------------------------------------+
|        2325|   -8.845988|   -7.913141|   -8.565017|   -8.513165|    0.009285|   -0.254317|    0.018847|   -0.722518|
|        2350|   -8.851543|   -7.920462|   -8.573178|   -8.519437|    0.009266|   -0.254637|    0.018677|   -0.727259|
|        2375|   -8.858625|   -7.928041|   -8.581200|   -8.527328|    0.009247|   -0.254949|    0.018511|   -0.732060|
|        2400|   -8.865649|   -7.935785|   -8.589249|   -8.535369|    0.009229|   -0.255256|    0.018347|   -0.733094|
+-----------------------------------------------------------------------+
|        File Writing Summary       |              Filename             |
+-----------------------------------------------------------------------+
|SU2 binary restart                 |restart.dat                        |
|Paraview                           |vol_solution.vtu                   |
|Paraview surface                   |surface.vtu                        |
+-----------------------------------------------------------------------+
+--------------------------------------------------------------------------------------------------------------------+
|  Inner_Iter|    rms[Rho]|   rms[RhoU]|   rms[RhoV]|   rms[RhoE]|          CD|          CL|         CMz|   LinSolRes|
+--------------------------------------------------------------------------------------------------------------------+
|        2425|   -8.872612|   -7.943621|   -8.597259|   -8.543268|    0.009210|   -0.255557|    0.018186|   -0.734434|
|        2450|   -8.880079|   -7.951548|   -8.605506|   -8.551716|    0.009192|   -0.255852|    0.018029|   -0.733838|
|        2475|   -8.888222|   -7.959598|   -8.613876|   -8.560947|    0.009174|   -0.256142|    0.017874|   -0.731117|
|        2500|   -8.896570|   -7.967727|   -8.622276|   -8.570320|    0.009156|   -0.256426|    0.017722|   -0.727548|
+-----------------------------------------------------------------------+
|        File Writing Summary       |              Filename             |
+-----------------------------------------------------------------------+
|SU2 binary restart                 |restart.dat                        |
|Paraview                           |vol_solution.vtu                   |
|Paraview surface                   |surface.vtu                        |
+-----------------------------------------------------------------------+
+--------------------------------------------------------------------------------------------------------------------+
|  Inner_Iter|    rms[Rho]|   rms[RhoU]|   rms[RhoV]|   rms[RhoE]|          CD|          CL|         CMz|   LinSolRes|
+--------------------------------------------------------------------------------------------------------------------+
|        2525|   -8.904698|   -7.975862|   -8.630609|   -8.579383|    0.009139|   -0.256706|    0.017573|   -0.724581|
|        2550|   -8.912455|   -7.983991|   -8.638655|   -8.588020|    0.009121|   -0.256980|    0.017425|   -0.722465|
|        2575|   -8.919938|   -7.992108|   -8.646323|   -8.596271|    0.009104|   -0.257250|    0.017281|   -0.720856|
|        2600|   -8.927113|   -8.000164|   -8.653806|   -8.604120|    0.009088|   -0.257515|    0.017138|   -0.719675|
+-----------------------------------------------------------------------+
|        File Writing Summary       |              Filename             |
+-----------------------------------------------------------------------+
|SU2 binary restart                 |restart.dat                        |
|Paraview                           |vol_solution.vtu                   |
|Paraview surface                   |surface.vtu                        |
+-----------------------------------------------------------------------+
+--------------------------------------------------------------------------------------------------------------------+
|  Inner_Iter|    rms[Rho]|   rms[RhoU]|   rms[RhoV]|   rms[RhoE]|          CD|          CL|         CMz|   LinSolRes|
+--------------------------------------------------------------------------------------------------------------------+
|        2625|   -8.934282|   -8.008172|   -8.661047|   -8.611828|    0.009071|   -0.257776|    0.016998|   -0.718962|
|        2650|   -8.941209|   -8.016153|   -8.668053|   -8.619149|    0.009055|   -0.258033|    0.016860|   -0.718808|
|        2675|   -8.947827|   -8.024099|   -8.674909|   -8.626058|    0.009039|   -0.258285|    0.016724|   -0.719361|
|        2700|   -8.954361|   -8.031996|   -8.681590|   -8.632802|    0.009023|   -0.258534|    0.016590|   -0.720133|
+-----------------------------------------------------------------------+
|        File Writing Summary       |              Filename             |
+-----------------------------------------------------------------------+
|SU2 binary restart                 |restart.dat                        |
|Paraview                           |vol_solution.vtu                   |
|Paraview surface                   |surface.vtu                        |
+-----------------------------------------------------------------------+
+--------------------------------------------------------------------------------------------------------------------+
|  Inner_Iter|    rms[Rho]|   rms[RhoU]|   rms[RhoV]|   rms[RhoE]|          CD|          CL|         CMz|   LinSolRes|
+--------------------------------------------------------------------------------------------------------------------+
|        2725|   -8.960940|   -8.039836|   -8.688156|   -8.639607|    0.009008|   -0.258779|    0.016458|   -0.720029|
|        2750|   -8.967648|   -8.047611|   -8.694678|   -8.646595|    0.008993|   -0.259020|    0.016328|   -0.718223|
|        2775|   -8.974366|   -8.055317|   -8.701104|   -8.653583|    0.008978|   -0.259257|    0.016200|   -0.715420|
|        2800|   -8.981026|   -8.062964|   -8.707406|   -8.660537|    0.008964|   -0.259491|    0.016073|   -0.710777|
+-----------------------------------------------------------------------+
|        File Writing Summary       |              Filename             |
+-----------------------------------------------------------------------+
|SU2 binary restart                 |restart.dat                        |
|Paraview                           |vol_solution.vtu                   |
|Paraview surface                   |surface.vtu                        |
+-----------------------------------------------------------------------+
+--------------------------------------------------------------------------------------------------------------------+
|  Inner_Iter|    rms[Rho]|   rms[RhoU]|   rms[RhoV]|   rms[RhoE]|          CD|          CL|         CMz|   LinSolRes|
+--------------------------------------------------------------------------------------------------------------------+
|        2825|   -8.988185|   -8.070534|   -8.713872|   -8.668194|    0.008950|   -0.259722|    0.015949|   -0.703947|
|        2850|   -8.996243|   -8.078061|   -8.720386|   -8.677244|    0.008936|   -0.259950|    0.015826|   -0.701333|
|        2875|   -9.003633|   -8.085484|   -8.726999|   -8.685308|    0.008922|   -0.260174|    0.015704|   -0.698508|
|        2900|   -9.011495|   -8.092828|   -8.733497|   -8.694051|    0.008909|   -0.260396|    0.015584|   -0.701796|
+-----------------------------------------------------------------------+
|        File Writing Summary       |              Filename             |
+-----------------------------------------------------------------------+
|SU2 binary restart                 |restart.dat                        |
|Paraview                           |vol_solution.vtu                   |
|Paraview surface                   |surface.vtu                        |
+-----------------------------------------------------------------------+
+--------------------------------------------------------------------------------------------------------------------+
|  Inner_Iter|    rms[Rho]|   rms[RhoU]|   rms[RhoV]|   rms[RhoE]|          CD|          CL|         CMz|   LinSolRes|
+--------------------------------------------------------------------------------------------------------------------+
|        2925|   -9.017519|   -8.100086|   -8.739440|   -8.700172|    0.008896|   -0.260615|    0.015466|   -0.705654|
|        2950|   -9.021978|   -8.107314|   -8.744688|   -8.704200|    0.008883|   -0.260831|    0.015349|   -0.709411|
|        2975|   -9.027217|   -8.114417|   -8.749902|   -8.709448|    0.008870|   -0.261044|    0.015234|   -0.705208|
|        3000|   -9.033530|   -8.121426|   -8.755308|   -8.716305|    0.008858|   -0.261255|    0.015120|   -0.695912|
+-----------------------------------------------------------------------+
|        File Writing Summary       |              Filename             |
+-----------------------------------------------------------------------+
|SU2 binary restart                 |restart.dat                        |
|Paraview                           |vol_solution.vtu                   |
|Paraview surface                   |surface.vtu                        |
+-----------------------------------------------------------------------+
+--------------------------------------------------------------------------------------------------------------------+
|  Inner_Iter|    rms[Rho]|   rms[RhoU]|   rms[RhoV]|   rms[RhoE]|          CD|          CL|         CMz|   LinSolRes|
+--------------------------------------------------------------------------------------------------------------------+
|        3025|   -9.041039|   -8.128376|   -8.761232|   -8.725000|    0.008846|   -0.261463|    0.015007|   -0.692179|
|        3050|   -9.048578|   -8.135249|   -8.767363|   -8.733623|    0.008834|   -0.261669|    0.014896|   -0.696602|
|        3075|   -9.052380|   -8.142068|   -8.772602|   -8.736846|    0.008822|   -0.261872|    0.014787|   -0.702624|
|        3100|   -9.056901|   -8.148832|   -8.777793|   -8.741268|    0.008811|   -0.262073|    0.014678|   -0.698369|
+-----------------------------------------------------------------------+
|        File Writing Summary       |              Filename             |
+-----------------------------------------------------------------------+
|SU2 binary restart                 |restart.dat                        |
|Paraview                           |vol_solution.vtu                   |
|Paraview surface                   |surface.vtu                        |
+-----------------------------------------------------------------------+
+--------------------------------------------------------------------------------------------------------------------+
|  Inner_Iter|    rms[Rho]|   rms[RhoU]|   rms[RhoV]|   rms[RhoE]|          CD|          CL|         CMz|   LinSolRes|
+--------------------------------------------------------------------------------------------------------------------+
|        3125|   -9.063686|   -8.155565|   -8.783326|   -8.749121|    0.008800|   -0.262271|    0.014571|   -0.689816|
|        3150|   -9.071159|   -8.162235|   -8.789442|   -8.757918|    0.008789|   -0.262467|    0.014466|   -0.689731|
|        3175|   -9.075430|   -8.168852|   -8.794624|   -8.761950|    0.008778|   -0.262661|    0.014361|   -0.697033|
|        3200|   -9.079352|   -8.175439|   -8.799450|   -8.765649|    0.008767|   -0.262852|    0.014258|   -0.693102|
+-----------------------------------------------------------------------+
|        File Writing Summary       |              Filename             |
+-----------------------------------------------------------------------+
|SU2 binary restart                 |restart.dat                        |
|Paraview                           |vol_solution.vtu                   |
|Paraview surface                   |surface.vtu                        |
+-----------------------------------------------------------------------+
+--------------------------------------------------------------------------------------------------------------------+
|  Inner_Iter|    rms[Rho]|   rms[RhoU]|   rms[RhoV]|   rms[RhoE]|          CD|          CL|         CMz|   LinSolRes|
+--------------------------------------------------------------------------------------------------------------------+
|        3225|   -9.086167|   -8.182012|   -8.804750|   -8.773771|    0.008757|   -0.263042|    0.014156|   -0.684557|
|        3250|   -9.093228|   -8.188500|   -8.810593|   -8.782054|    0.008747|   -0.263229|    0.014056|   -0.687996|
|        3275|   -9.096100|   -8.194956|   -8.815301|   -8.784202|    0.008737|   -0.263414|    0.013956|   -0.692767|
|        3300|   -9.101337|   -8.201376|   -8.820284|   -8.790047|    0.008727|   -0.263596|    0.013858|   -0.682657|
+-----------------------------------------------------------------------+
|        File Writing Summary       |              Filename             |
+-----------------------------------------------------------------------+
|SU2 binary restart                 |restart.dat                        |
|Paraview                           |vol_solution.vtu                   |
|Paraview surface                   |surface.vtu                        |
+-----------------------------------------------------------------------+
+--------------------------------------------------------------------------------------------------------------------+
|  Inner_Iter|    rms[Rho]|   rms[RhoU]|   rms[RhoV]|   rms[RhoE]|          CD|          CL|         CMz|   LinSolRes|
+--------------------------------------------------------------------------------------------------------------------+
|        3325|   -9.109004|   -8.207768|   -8.826224|   -8.799467|    0.008718|   -0.263777|    0.013761|   -0.682695|
|        3350|   -9.112080|   -8.214128|   -8.831042|   -8.801957|    0.008708|   -0.263956|    0.013665|   -0.689548|
|        3375|   -9.116878|   -8.220470|   -8.835854|   -8.807221|    0.008699|   -0.264133|    0.013570|   -0.679558|
|        3400|   -9.124490|   -8.226801|   -8.841590|   -8.816656|    0.008690|   -0.264308|    0.013476|   -0.679856|
+-----------------------------------------------------------------------+
|        File Writing Summary       |              Filename             |
+-----------------------------------------------------------------------+
|SU2 binary restart                 |restart.dat                        |
|Paraview                           |vol_solution.vtu                   |
|Paraview surface                   |surface.vtu                        |
+-----------------------------------------------------------------------+
+--------------------------------------------------------------------------------------------------------------------+
|  Inner_Iter|    rms[Rho]|   rms[RhoU]|   rms[RhoV]|   rms[RhoE]|          CD|          CL|         CMz|   LinSolRes|
+--------------------------------------------------------------------------------------------------------------------+
|        3425|   -9.127151|   -8.233121|   -8.846110|   -8.818588|    0.008681|   -0.264481|    0.013383|   -0.685227|
|        3450|   -9.132786|   -8.239468|   -8.850885|   -8.825208|    0.008672|   -0.264652|    0.013292|   -0.675096|
|        3475|   -9.139043|   -8.245759|   -8.856411|   -8.832535|    0.008664|   -0.264821|    0.013201|   -0.679340|
|        3500|   -9.141793|   -8.252037|   -8.860924|   -8.834657|    0.008655|   -0.264988|    0.013112|   -0.677824|
+-----------------------------------------------------------------------+
|        File Writing Summary       |              Filename             |
+-----------------------------------------------------------------------+
|SU2 binary restart                 |restart.dat                        |
|Paraview                           |vol_solution.vtu                   |
|Paraview surface                   |surface.vtu                        |
+-----------------------------------------------------------------------+
+--------------------------------------------------------------------------------------------------------------------+
|  Inner_Iter|    rms[Rho]|   rms[RhoU]|   rms[RhoV]|   rms[RhoE]|          CD|          CL|         CMz|   LinSolRes|
+--------------------------------------------------------------------------------------------------------------------+
|        3525|   -9.148892|   -8.258284|   -8.866486|   -8.843540|    0.008647|   -0.265154|    0.013024|   -0.671417|
|        3550|   -9.152700|   -8.264513|   -8.871473|   -8.847205|    0.008639|   -0.265317|    0.012936|   -0.679643|
|        3575|   -9.157754|   -8.270750|   -8.876300|   -8.853050|    0.008631|   -0.265479|    0.012850|   -0.669693|
|        3600|   -9.163578|   -8.276960|   -8.881663|   -8.859824|    0.008623|   -0.265640|    0.012764|   -0.674603|
+-----------------------------------------------------------------------+
|        File Writing Summary       |              Filename             |
+-----------------------------------------------------------------------+
|SU2 binary restart                 |restart.dat                        |
|Paraview                           |vol_solution.vtu                   |
|Paraview surface                   |surface.vtu                        |
+-----------------------------------------------------------------------+
+--------------------------------------------------------------------------------------------------------------------+
|  Inner_Iter|    rms[Rho]|   rms[RhoU]|   rms[RhoV]|   rms[RhoE]|          CD|          CL|         CMz|   LinSolRes|
+--------------------------------------------------------------------------------------------------------------------+
|        3625|   -9.166654|   -8.283190|   -8.885966|   -8.862559|    0.008616|   -0.265798|    0.012680|   -0.669548|
|        3650|   -9.174058|   -8.289393|   -8.891284|   -8.872023|    0.008608|   -0.265955|    0.012596|   -0.668739|
|        3675|   -9.176252|   -8.295557|   -8.895440|   -8.873369|    0.008601|   -0.266110|    0.012513|   -0.669942|
|        3700|   -9.183339|   -8.301733|   -8.900653|   -8.882467|    0.008594|   -0.266264|    0.012432|   -0.664322|
+-----------------------------------------------------------------------+
|        File Writing Summary       |              Filename             |
+-----------------------------------------------------------------------+
|SU2 binary restart                 |restart.dat                        |
|Paraview                           |vol_solution.vtu                   |
|Paraview surface                   |surface.vtu                        |
+-----------------------------------------------------------------------+
+--------------------------------------------------------------------------------------------------------------------+
|  Inner_Iter|    rms[Rho]|   rms[RhoU]|   rms[RhoV]|   rms[RhoE]|          CD|          CL|         CMz|   LinSolRes|
+--------------------------------------------------------------------------------------------------------------------+
|        3725|   -9.186105|   -8.307880|   -8.905100|   -8.884618|    0.008586|   -0.266416|    0.012351|   -0.669183|
|        3750|   -9.192436|   -8.314046|   -8.910232|   -8.892576|    0.008579|   -0.266566|    0.012271|   -0.660956|
|        3775|   -9.195895|   -8.320205|   -8.914923|   -8.895801|    0.008573|   -0.266715|    0.012192|   -0.667433|
|        3800|   -9.201863|   -8.326403|   -8.919952|   -8.903227|    0.008566|   -0.266862|    0.012114|   -0.658472|
+-----------------------------------------------------------------------+
|        File Writing Summary       |              Filename             |
+-----------------------------------------------------------------------+
|SU2 binary restart                 |restart.dat                        |
|Paraview                           |vol_solution.vtu                   |
|Paraview surface                   |surface.vtu                        |
+-----------------------------------------------------------------------+
+--------------------------------------------------------------------------------------------------------------------+
|  Inner_Iter|    rms[Rho]|   rms[RhoU]|   rms[RhoV]|   rms[RhoE]|          CD|          CL|         CMz|   LinSolRes|
+--------------------------------------------------------------------------------------------------------------------+
|        3825|   -9.205531|   -8.332587|   -8.924641|   -8.906774|    0.008559|   -0.267008|    0.012037|   -0.665045|
|        3850|   -9.211573|   -8.338780|   -8.929662|   -8.914336|    0.008553|   -0.267152|    0.011960|   -0.656449|
|        3875|   -9.214988|   -8.344956|   -8.934286|   -8.917496|    0.008546|   -0.267295|    0.011885|   -0.662055|
|        3900|   -9.221539|   -8.351162|   -8.939427|   -8.925887|    0.008540|   -0.267436|    0.011810|   -0.654992|
+-----------------------------------------------------------------------+
|        File Writing Summary       |              Filename             |
+-----------------------------------------------------------------------+
|SU2 binary restart                 |restart.dat                        |
|Paraview                           |vol_solution.vtu                   |
|Paraview surface                   |surface.vtu                        |
+-----------------------------------------------------------------------+
+--------------------------------------------------------------------------------------------------------------------+
|  Inner_Iter|    rms[Rho]|   rms[RhoU]|   rms[RhoV]|   rms[RhoE]|          CD|          CL|         CMz|   LinSolRes|
+--------------------------------------------------------------------------------------------------------------------+
|        3925|   -9.224331|   -8.357352|   -8.943903|   -8.928065|    0.008534|   -0.267576|    0.011736|   -0.658287|
|        3950|   -9.231324|   -8.363565|   -8.949197|   -8.937149|    0.008528|   -0.267714|    0.011663|   -0.654193|
|        3975|   -9.233816|   -8.369768|   -8.953583|   -8.938889|    0.008522|   -0.267851|    0.011591|   -0.653971|
|        4000|   -9.240320|   -8.375979|   -8.958907|   -8.947156|    0.008516|   -0.267987|    0.011519|   -0.654479|
+-----------------------------------------------------------------------+
|        File Writing Summary       |              Filename             |
+-----------------------------------------------------------------------+
|SU2 binary restart                 |restart.dat                        |
|Paraview                           |vol_solution.vtu                   |
|Paraview surface                   |surface.vtu                        |
+-----------------------------------------------------------------------+
+--------------------------------------------------------------------------------------------------------------------+
|  Inner_Iter|    rms[Rho]|   rms[RhoU]|   rms[RhoV]|   rms[RhoE]|          CD|          CL|         CMz|   LinSolRes|
+--------------------------------------------------------------------------------------------------------------------+
|        4025|   -9.243917|   -8.382204|   -8.963466|   -8.950824|    0.008510|   -0.268120|    0.011449|   -0.650047|
|        4050|   -9.249309|   -8.388428|   -8.968733|   -8.957216|    0.008505|   -0.268253|    0.011379|   -0.655181|
|        4075|   -9.254227|   -8.394661|   -8.973706|   -8.963081|    0.008499|   -0.268384|    0.011310|   -0.646458|
|        4100|   -9.258206|   -8.400892|   -8.978652|   -8.967148|    0.008494|   -0.268513|    0.011242|   -0.651465|
+-----------------------------------------------------------------------+
|        File Writing Summary       |              Filename             |
+-----------------------------------------------------------------------+
|SU2 binary restart                 |restart.dat                        |
|Paraview                           |vol_solution.vtu                   |
|Paraview surface                   |surface.vtu                        |
+-----------------------------------------------------------------------+
+--------------------------------------------------------------------------------------------------------------------+
|  Inner_Iter|    rms[Rho]|   rms[RhoU]|   rms[RhoV]|   rms[RhoE]|          CD|          CL|         CMz|   LinSolRes|
+--------------------------------------------------------------------------------------------------------------------+
|        4125|   -9.264872|   -8.407154|   -8.984028|   -8.975821|    0.008488|   -0.268642|    0.011174|   -0.646888|
|        4150|   -9.267759|   -8.413439|   -8.988557|   -8.978227|    0.008483|   -0.268769|    0.011108|   -0.645975|
|        4175|   -9.273579|   -8.419741|   -8.993833|   -8.985422|    0.008478|   -0.268894|    0.011042|   -0.649452|
|        4200|   -9.278388|   -8.426043|   -8.998804|   -8.991119|    0.008473|   -0.269018|    0.010976|   -0.641614|
+-----------------------------------------------------------------------+
|        File Writing Summary       |              Filename             |
+-----------------------------------------------------------------------+
|SU2 binary restart                 |restart.dat                        |
|Paraview                           |vol_solution.vtu                   |
|Paraview surface                   |surface.vtu                        |
+-----------------------------------------------------------------------+
+--------------------------------------------------------------------------------------------------------------------+
|  Inner_Iter|    rms[Rho]|   rms[RhoU]|   rms[RhoV]|   rms[RhoE]|          CD|          CL|         CMz|   LinSolRes|
+--------------------------------------------------------------------------------------------------------------------+
|        4225|   -9.282320|   -8.432348|   -9.003736|   -8.995110|    0.008468|   -0.269141|    0.010912|   -0.645538|
|        4250|   -9.288660|   -8.438675|   -9.009083|   -9.003298|    0.008463|   -0.269262|    0.010848|   -0.643356|
|        4275|   -9.292430|   -8.445018|   -9.013861|   -9.007238|    0.008458|   -0.269382|    0.010786|   -0.639747|
|        4300|   -9.297304|   -8.451341|   -9.019209|   -9.012832|    0.008453|   -0.269501|    0.010723|   -0.644127|
+-----------------------------------------------------------------------+
|        File Writing Summary       |              Filename             |
+-----------------------------------------------------------------------+
|SU2 binary restart                 |restart.dat                        |
|Paraview                           |vol_solution.vtu                   |
|Paraview surface                   |surface.vtu                        |
+-----------------------------------------------------------------------+
+--------------------------------------------------------------------------------------------------------------------+
|  Inner_Iter|    rms[Rho]|   rms[RhoU]|   rms[RhoV]|   rms[RhoE]|          CD|          CL|         CMz|   LinSolRes|
+--------------------------------------------------------------------------------------------------------------------+
|        4325|   -9.303596|   -8.457696|   -9.024668|   -9.021013|    0.008449|   -0.269618|    0.010662|   -0.639025|
|        4350|   -9.306906|   -8.464075|   -9.029456|   -9.024124|    0.008444|   -0.269734|    0.010601|   -0.637880|
|        4375|   -9.312181|   -8.470446|   -9.034942|   -9.030437|    0.008439|   -0.269849|    0.010541|   -0.641709|
|        4400|   -9.318321|   -8.476841|   -9.040444|   -9.038388|    0.008435|   -0.269962|    0.010482|   -0.636103|
+-----------------------------------------------------------------------+
|        File Writing Summary       |              Filename             |
+-----------------------------------------------------------------------+
|SU2 binary restart                 |restart.dat                        |
|Paraview                           |vol_solution.vtu                   |
|Paraview surface                   |surface.vtu                        |
+-----------------------------------------------------------------------+
+--------------------------------------------------------------------------------------------------------------------+
|  Inner_Iter|    rms[Rho]|   rms[RhoU]|   rms[RhoV]|   rms[RhoE]|          CD|          CL|         CMz|   LinSolRes|
+--------------------------------------------------------------------------------------------------------------------+
|        4425|   -9.321686|   -8.483262|   -9.045303|   -9.041571|    0.008431|   -0.270074|    0.010424|   -0.635381|
|        4450|   -9.326879|   -8.489664|   -9.050792|   -9.047796|    0.008426|   -0.270185|    0.010366|   -0.638789|
|        4475|   -9.332909|   -8.496081|   -9.056247|   -9.055618|    0.008422|   -0.270294|    0.010309|   -0.634073|
|        4500|   -9.336541|   -8.502530|   -9.061131|   -9.059313|    0.008418|   -0.270402|    0.010252|   -0.632149|
+-----------------------------------------------------------------------+
|        File Writing Summary       |              Filename             |
+-----------------------------------------------------------------------+
|SU2 binary restart                 |restart.dat                        |
|Paraview                           |vol_solution.vtu                   |
|Paraview surface                   |surface.vtu                        |
+-----------------------------------------------------------------------+
+--------------------------------------------------------------------------------------------------------------------+
|  Inner_Iter|    rms[Rho]|   rms[RhoU]|   rms[RhoV]|   rms[RhoE]|          CD|          CL|         CMz|   LinSolRes|
+--------------------------------------------------------------------------------------------------------------------+
|        4525|   -9.341350|   -8.508947|   -9.066527|   -9.064872|    0.008414|   -0.270509|    0.010196|   -0.635156|
|        4550|   -9.347207|   -8.515408|   -9.071929|   -9.072423|    0.008410|   -0.270615|    0.010141|   -0.633348|
|        4575|   -9.351729|   -8.521887|   -9.077144|   -9.077703|    0.008406|   -0.270720|    0.010087|   -0.628896|
|        4600|   -9.355889|   -8.528347|   -9.082390|   -9.082142|    0.008402|   -0.270823|    0.010033|   -0.631030|
+-----------------------------------------------------------------------+
|        File Writing Summary       |              Filename             |
+-----------------------------------------------------------------------+
|SU2 binary restart                 |restart.dat                        |
|Paraview                           |vol_solution.vtu                   |
|Paraview surface                   |surface.vtu                        |
+-----------------------------------------------------------------------+
+--------------------------------------------------------------------------------------------------------------------+
|  Inner_Iter|    rms[Rho]|   rms[RhoU]|   rms[RhoV]|   rms[RhoE]|          CD|          CL|         CMz|   LinSolRes|
+--------------------------------------------------------------------------------------------------------------------+
|        4625|   -9.361619|   -8.534828|   -9.088042|   -9.089477|    0.008398|   -0.270925|    0.009980|   -0.633042|
|        4650|   -9.367353|   -8.541293|   -9.093769|   -9.096897|    0.008394|   -0.271026|    0.009928|   -0.627821|
|        4675|   -9.371097|   -8.547803|   -9.099013|   -9.100741|    0.008390|   -0.271125|    0.009876|   -0.626875|
|        4700|   -9.375958|   -8.554296|   -9.104702|   -9.106444|    0.008387|   -0.271224|    0.009825|   -0.629126|
+-----------------------------------------------------------------------+
|        File Writing Summary       |              Filename             |
+-----------------------------------------------------------------------+
|SU2 binary restart                 |restart.dat                        |
|Paraview                           |vol_solution.vtu                   |
|Paraview surface                   |surface.vtu                        |
+-----------------------------------------------------------------------+
+--------------------------------------------------------------------------------------------------------------------+
|  Inner_Iter|    rms[Rho]|   rms[RhoU]|   rms[RhoV]|   rms[RhoE]|          CD|          CL|         CMz|   LinSolRes|
+--------------------------------------------------------------------------------------------------------------------+
|        4725|   -9.381669|   -8.560844|   -9.110312|   -9.113843|    0.008383|   -0.271321|    0.009774|   -0.629413|
|        4750|   -9.387105|   -8.567382|   -9.115917|   -9.120790|    0.008380|   -0.271417|    0.009724|   -0.624518|
|        4775|   -9.390858|   -8.573958|   -9.121034|   -9.124652|    0.008376|   -0.271512|    0.009675|   -0.624337|
|        4800|   -9.395736|   -8.580489|   -9.126603|   -9.130460|    0.008373|   -0.271605|    0.009626|   -0.626062|
+-----------------------------------------------------------------------+
|        File Writing Summary       |              Filename             |
+-----------------------------------------------------------------------+
|SU2 binary restart                 |restart.dat                        |
|Paraview                           |vol_solution.vtu                   |
|Paraview surface                   |surface.vtu                        |
+-----------------------------------------------------------------------+
+--------------------------------------------------------------------------------------------------------------------+
|  Inner_Iter|    rms[Rho]|   rms[RhoU]|   rms[RhoV]|   rms[RhoE]|          CD|          CL|         CMz|   LinSolRes|
+--------------------------------------------------------------------------------------------------------------------+
|        4825|   -9.401285|   -8.587037|   -9.132149|   -9.137666|    0.008369|   -0.271698|    0.009578|   -0.626499|
|        4850|   -9.406727|   -8.593554|   -9.137817|   -9.144723|    0.008366|   -0.271790|    0.009531|   -0.621947|
|        4875|   -9.410633|   -8.600114|   -9.143099|   -9.148928|    0.008363|   -0.271880|    0.009484|   -0.620869|
|        4900|   -9.415249|   -8.606656|   -9.148651|   -9.154327|    0.008360|   -0.271969|    0.009438|   -0.622367|
+-----------------------------------------------------------------------+
|        File Writing Summary       |              Filename             |
+-----------------------------------------------------------------------+
|SU2 binary restart                 |restart.dat                        |
|Paraview                           |vol_solution.vtu                   |
|Paraview surface                   |surface.vtu                        |
+-----------------------------------------------------------------------+
+--------------------------------------------------------------------------------------------------------------------+
|  Inner_Iter|    rms[Rho]|   rms[RhoU]|   rms[RhoV]|   rms[RhoE]|          CD|          CL|         CMz|   LinSolRes|
+--------------------------------------------------------------------------------------------------------------------+
|        4925|   -9.420629|   -8.613228|   -9.154335|   -9.161278|    0.008356|   -0.272057|    0.009392|   -0.623618|
|        4950|   -9.425988|   -8.619797|   -9.159951|   -9.168230|    0.008353|   -0.272144|    0.009347|   -0.621028|
|        4975|   -9.430958|   -8.626382|   -9.165612|   -9.174493|    0.008350|   -0.272230|    0.009303|   -0.617921|
[...]
|  Inner_Iter|    rms[Rho]|   rms[RhoU]|   rms[RhoV]|   rms[RhoE]|          CD|          CL|         CMz|   LinSolRes|
+--------------------------------------------------------------------------------------------------------------------+
|        9125|  -10.108015|   -9.811510|  -10.254631|  -10.303739|    0.008169|   -0.277793|    0.006480|   -0.590084|
|        9150|  -10.111086|   -9.819139|  -10.261879|  -10.310988|    0.008168|   -0.277800|    0.006477|   -0.590808|
|        9175|  -10.114165|   -9.826762|  -10.269187|  -10.318465|    0.008168|   -0.277807|    0.006473|   -0.591224|
|        9200|  -10.117248|   -9.834387|  -10.276486|  -10.326121|    0.008168|   -0.277814|    0.006470|   -0.591497|
+-----------------------------------------------------------------------+
|        File Writing Summary       |              Filename             |
+-----------------------------------------------------------------------+
|SU2 binary restart                 |restart.dat                        |
|Paraview                           |vol_solution.vtu                   |
|Paraview surface                   |surface.vtu                        |
+-----------------------------------------------------------------------+
+--------------------------------------------------------------------------------------------------------------------+
|  Inner_Iter|    rms[Rho]|   rms[RhoU]|   rms[RhoV]|   rms[RhoE]|          CD|          CL|         CMz|   LinSolRes|
+--------------------------------------------------------------------------------------------------------------------+
|        9225|  -10.120287|   -9.842031|  -10.283717|  -10.333241|    0.008168|   -0.277821|    0.006466|   -0.592362|
|        9250|  -10.123336|   -9.849674|  -10.291020|  -10.340632|    0.008168|   -0.277828|    0.006463|   -0.593072|
|        9275|  -10.126379|   -9.857311|  -10.298307|  -10.348044|    0.008167|   -0.277835|    0.006460|   -0.593347|
|        9300|  -10.129403|   -9.864970|  -10.305555|  -10.355341|    0.008167|   -0.277841|    0.006457|   -0.594070|
+-----------------------------------------------------------------------+
|        File Writing Summary       |              Filename             |
+-----------------------------------------------------------------------+
|SU2 binary restart                 |restart.dat                        |
|Paraview                           |vol_solution.vtu                   |
|Paraview surface                   |surface.vtu                        |
+-----------------------------------------------------------------------+
+--------------------------------------------------------------------------------------------------------------------+
|  Inner_Iter|    rms[Rho]|   rms[RhoU]|   rms[RhoV]|   rms[RhoE]|          CD|          CL|         CMz|   LinSolRes|
+--------------------------------------------------------------------------------------------------------------------+
|        9325|  -10.132419|   -9.872629|  -10.312842|  -10.362659|    0.008167|   -0.277848|    0.006454|   -0.594778|
|        9350|  -10.135453|   -9.880280|  -10.320173|  -10.370380|    0.008167|   -0.277854|    0.006450|   -0.595081|
|        9375|  -10.138450|   -9.887945|  -10.327421|  -10.377627|    0.008167|   -0.277860|    0.006447|   -0.595838|
|        9400|  -10.141442|   -9.895615|  -10.334718|  -10.384924|    0.008166|   -0.277866|    0.006445|   -0.596812|
+-----------------------------------------------------------------------+
|        File Writing Summary       |              Filename             |
+-----------------------------------------------------------------------+
|SU2 binary restart                 |restart.dat                        |
|Paraview                           |vol_solution.vtu                   |
|Paraview surface                   |surface.vtu                        |
+-----------------------------------------------------------------------+
+--------------------------------------------------------------------------------------------------------------------+
|  Inner_Iter|    rms[Rho]|   rms[RhoU]|   rms[RhoV]|   rms[RhoE]|          CD|          CL|         CMz|   LinSolRes|
+--------------------------------------------------------------------------------------------------------------------+
|        9425|  -10.144439|   -9.903276|  -10.342035|  -10.392389|    0.008166|   -0.277872|    0.006442|   -0.597183|
|        9450|  -10.147419|   -9.910959|  -10.349304|  -10.399726|    0.008166|   -0.277878|    0.006439|   -0.597921|
|        9475|  -10.150387|   -9.918650|  -10.356600|  -10.407016|    0.008166|   -0.277884|    0.006436|   -0.598800|
|        9500|  -10.153372|   -9.926327|  -10.363966|  -10.414735|    0.008166|   -0.277890|    0.006433|   -0.599224|
+-----------------------------------------------------------------------+
|        File Writing Summary       |              Filename             |
+-----------------------------------------------------------------------+
|SU2 binary restart                 |restart.dat                        |
|Paraview                           |vol_solution.vtu                   |
|Paraview surface                   |surface.vtu                        |
+-----------------------------------------------------------------------+
+--------------------------------------------------------------------------------------------------------------------+
|  Inner_Iter|    rms[Rho]|   rms[RhoU]|   rms[RhoV]|   rms[RhoE]|          CD|          CL|         CMz|   LinSolRes|
+--------------------------------------------------------------------------------------------------------------------+
|        9525|  -10.156328|   -9.934013|  -10.371265|  -10.422056|    0.008165|   -0.277896|    0.006430|   -0.600033|
|        9550|  -10.159277|   -9.941706|  -10.378613|  -10.429363|    0.008165|   -0.277901|    0.006428|   -0.601143|
|        9575|  -10.162230|   -9.949389|  -10.385986|  -10.436866|    0.008165|   -0.277907|    0.006425|   -0.601632|
|        9600|  -10.165167|   -9.957093|  -10.393305|  -10.444229|    0.008165|   -0.277912|    0.006423|   -0.602518|
+-----------------------------------------------------------------------+
|        File Writing Summary       |              Filename             |
+-----------------------------------------------------------------------+
|SU2 binary restart                 |restart.dat                        |
|Paraview                           |vol_solution.vtu                   |
|Paraview surface                   |surface.vtu                        |
+-----------------------------------------------------------------------+
+--------------------------------------------------------------------------------------------------------------------+
|  Inner_Iter|    rms[Rho]|   rms[RhoU]|   rms[RhoV]|   rms[RhoE]|          CD|          CL|         CMz|   LinSolRes|
+--------------------------------------------------------------------------------------------------------------------+
|        9625|  -10.168094|   -9.964800|  -10.400649|  -10.451555|    0.008165|   -0.277917|    0.006420|   -0.603513|
|        9650|  -10.171036|   -9.972497|  -10.408047|  -10.459312|    0.008165|   -0.277922|    0.006418|   -0.604044|
|        9675|  -10.173946|   -9.980210|  -10.415359|  -10.466561|    0.008164|   -0.277928|    0.006415|   -0.605068|
|        9700|  -10.176859|   -9.987926|  -10.422738|  -10.473957|    0.008164|   -0.277933|    0.006413|   -0.606185|
+-----------------------------------------------------------------------+
|        File Writing Summary       |              Filename             |
+-----------------------------------------------------------------------+
|SU2 binary restart                 |restart.dat                        |
|Paraview                           |vol_solution.vtu                   |
|Paraview surface                   |surface.vtu                        |
+-----------------------------------------------------------------------+
+--------------------------------------------------------------------------------------------------------------------+
|  Inner_Iter|    rms[Rho]|   rms[RhoU]|   rms[RhoV]|   rms[RhoE]|          CD|          CL|         CMz|   LinSolRes|
+--------------------------------------------------------------------------------------------------------------------+
|        9725|  -10.179770|   -9.995633|  -10.430113|  -10.481447|    0.008164|   -0.277937|    0.006410|   -0.606781|
|        9750|  -10.182665|  -10.003365|  -10.437445|  -10.488785|    0.008164|   -0.277942|    0.006408|   -0.607910|
|        9775|  -10.185559|  -10.011091|  -10.444833|  -10.496227|    0.008164|   -0.277947|    0.006406|   -0.608884|
|        9800|  -10.188459|  -10.018815|  -10.452233|  -10.503952|    0.008164|   -0.277952|    0.006403|   -0.609568|
+-----------------------------------------------------------------------+
|        File Writing Summary       |              Filename             |
+-----------------------------------------------------------------------+
|SU2 binary restart                 |restart.dat                        |
|Paraview                           |vol_solution.vtu                   |
|Paraview surface                   |surface.vtu                        |
+-----------------------------------------------------------------------+
+--------------------------------------------------------------------------------------------------------------------+
|  Inner_Iter|    rms[Rho]|   rms[RhoU]|   rms[RhoV]|   rms[RhoE]|          CD|          CL|         CMz|   LinSolRes|
+--------------------------------------------------------------------------------------------------------------------+
|        9825|  -10.191330|  -10.026560|  -10.459581|  -10.511126|    0.008164|   -0.277956|    0.006401|   -0.610919|
|        9850|  -10.194212|  -10.034294|  -10.467027|  -10.518676|    0.008163|   -0.277961|    0.006399|   -0.611868|
|        9875|  -10.197084|  -10.042036|  -10.474439|  -10.526145|    0.008163|   -0.277965|    0.006397|   -0.612778|
|        9900|  -10.199943|  -10.049789|  -10.481859|  -10.533481|    0.008163|   -0.277970|    0.006395|   -0.614139|
+-----------------------------------------------------------------------+
|        File Writing Summary       |              Filename             |
+-----------------------------------------------------------------------+
|SU2 binary restart                 |restart.dat                        |
|Paraview                           |vol_solution.vtu                   |
|Paraview surface                   |surface.vtu                        |
+-----------------------------------------------------------------------+
+--------------------------------------------------------------------------------------------------------------------+
|  Inner_Iter|    rms[Rho]|   rms[RhoU]|   rms[RhoV]|   rms[RhoE]|          CD|          CL|         CMz|   LinSolRes|
+--------------------------------------------------------------------------------------------------------------------+
|        9925|  -10.202812|  -10.057527|  -10.489364|  -10.541227|    0.008163|   -0.277974|    0.006393|   -0.615009|
|        9950|  -10.205663|  -10.065278|  -10.496790|  -10.548650|    0.008163|   -0.277978|    0.006391|   -0.616164|
|        9975|  -10.208508|  -10.073049|  -10.504242|  -10.556039|    0.008163|   -0.277983|    0.006389|   -0.617610|
|       10000|  -10.211355|  -10.080816|  -10.511676|  -10.563589|    0.008163|   -0.277987|    0.006387|   -0.618452|
+-----------------------------------------------------------------------+
|        File Writing Summary       |              Filename             |
+-----------------------------------------------------------------------+
|SU2 binary restart                 |restart.dat                        |
|Paraview                           |vol_solution.vtu                   |
|Paraview surface                   |surface.vtu                        |
+-----------------------------------------------------------------------+
+--------------------------------------------------------------------------------------------------------------------+
|  Inner_Iter|    rms[Rho]|   rms[RhoU]|   rms[RhoV]|   rms[RhoE]|          CD|          CL|         CMz|   LinSolRes|
+--------------------------------------------------------------------------------------------------------------------+
|       10025|  -10.214188|  -10.088608|  -10.519042|  -10.570951|    0.008162|   -0.277991|    0.006385|   -0.619851|
|       10050|  -10.217020|  -10.096393|  -10.526463|  -10.578453|    0.008162|   -0.277995|    0.006383|   -0.621040|
|       10075|  -10.219854|  -10.104178|  -10.533874|  -10.586123|    0.008162|   -0.277999|    0.006381|   -0.622025|
|       10100|  -10.222667|  -10.111981|  -10.541266|  -10.593345|    0.008162|   -0.278002|    0.006379|   -0.623656|
+-----------------------------------------------------------------------+
|        File Writing Summary       |              Filename             |
+-----------------------------------------------------------------------+
|SU2 binary restart                 |restart.dat                        |
|Paraview                           |vol_solution.vtu                   |
|Paraview surface                   |surface.vtu                        |
+-----------------------------------------------------------------------+
+--------------------------------------------------------------------------------------------------------------------+
|  Inner_Iter|    rms[Rho]|   rms[RhoU]|   rms[RhoV]|   rms[RhoE]|          CD|          CL|         CMz|   LinSolRes|
+--------------------------------------------------------------------------------------------------------------------+
|       10125|  -10.225490|  -10.119763|  -10.548744|  -10.600942|    0.008162|   -0.278006|    0.006378|   -0.624676|
|       10150|  -10.228301|  -10.127559|  -10.556182|  -10.608384|    0.008162|   -0.278010|    0.006376|   -0.626070|
|       10175|  -10.231106|  -10.135356|  -10.563677|  -10.615818|    0.008162|   -0.278013|    0.006374|   -0.627576|
|       10200|  -10.233918|  -10.143148|  -10.571211|  -10.623640|    0.008162|   -0.278017|    0.006372|   -0.628649|
+-----------------------------------------------------------------------+
|        File Writing Summary       |              Filename             |
+-----------------------------------------------------------------------+
|SU2 binary restart                 |restart.dat                        |
|Paraview                           |vol_solution.vtu                   |
|Paraview surface                   |surface.vtu                        |
+-----------------------------------------------------------------------+
+--------------------------------------------------------------------------------------------------------------------+
|  Inner_Iter|    rms[Rho]|   rms[RhoU]|   rms[RhoV]|   rms[RhoE]|          CD|          CL|         CMz|   LinSolRes|
+--------------------------------------------------------------------------------------------------------------------+
|       10225|  -10.236707|  -10.150964|  -10.578678|  -10.630875|    0.008162|   -0.278021|    0.006371|   -0.630407|
|       10250|  -10.239505|  -10.158768|  -10.586229|  -10.638502|    0.008161|   -0.278024|    0.006369|   -0.631675|
|       10275|  -10.242294|  -10.166586|  -10.593713|  -10.645992|    0.008161|   -0.278027|    0.006367|   -0.633133|
|       10300|  -10.245074|  -10.174411|  -10.601220|  -10.653403|    0.008161|   -0.278031|    0.006366|   -0.634840|
+-----------------------------------------------------------------------+
|        File Writing Summary       |              Filename             |
+-----------------------------------------------------------------------+
|SU2 binary restart                 |restart.dat                        |
|Paraview                           |vol_solution.vtu                   |
|Paraview surface                   |surface.vtu                        |
+-----------------------------------------------------------------------+
+--------------------------------------------------------------------------------------------------------------------+
|  Inner_Iter|    rms[Rho]|   rms[RhoU]|   rms[RhoV]|   rms[RhoE]|          CD|          CL|         CMz|   LinSolRes|
+--------------------------------------------------------------------------------------------------------------------+
|       10325|  -10.247863|  -10.182226|  -10.608771|  -10.661245|    0.008161|   -0.278034|    0.006364|   -0.636039|
|       10350|  -10.250631|  -10.190064|  -10.616244|  -10.668483|    0.008161|   -0.278037|    0.006363|   -0.637910|
|       10375|  -10.253407|  -10.197892|  -10.623808|  -10.676122|    0.008161|   -0.278040|    0.006361|   -0.639321|
|       10400|  -10.256174|  -10.205734|  -10.631311|  -10.683622|    0.008161|   -0.278044|    0.006360|   -0.640935|
+-----------------------------------------------------------------------+
|        File Writing Summary       |              Filename             |
+-----------------------------------------------------------------------+
|SU2 binary restart                 |restart.dat                        |
|Paraview                           |vol_solution.vtu                   |
|Paraview surface                   |surface.vtu                        |
+-----------------------------------------------------------------------+
+--------------------------------------------------------------------------------------------------------------------+
|  Inner_Iter|    rms[Rho]|   rms[RhoU]|   rms[RhoV]|   rms[RhoE]|          CD|          CL|         CMz|   LinSolRes|
+--------------------------------------------------------------------------------------------------------------------+
|       10425|  -10.258934|  -10.213580|  -10.638854|  -10.691065|    0.008161|   -0.278047|    0.006358|   -0.642766|
|       10450|  -10.261700|  -10.221419|  -10.646438|  -10.698908|    0.008161|   -0.278050|    0.006357|   -0.644122|
|       10475|  -10.264449|  -10.229284|  -10.653962|  -10.706173|    0.008160|   -0.278053|    0.006356|   -0.646176|
|       10489|  -10.265994|  -10.233676|  -10.658237|  -10.710523|    0.008160|   -0.278054|    0.006355|   -0.646906|

----------------------------- Solver Exit -------------------------------
All convergence criteria satisfied.
+-----------------------------------------------------------------------+
|      Convergence Field     |     Value    |   Criterion  |  Converged |
+-----------------------------------------------------------------------+
|                  Cauchy[CL]|   4.99732e-07|       < 5e-07|         Yes|
+-----------------------------------------------------------------------+
-------------------------------------------------------------------------
+-----------------------------------------------------------------------+
|        File Writing Summary       |              Filename             |
+-----------------------------------------------------------------------+
|SU2 binary restart                 |restart.dat                        |
|Paraview                           |vol_solution.vtu                   |
|Paraview surface                   |surface.vtu                        |
+-----------------------------------------------------------------------+

------------------------- Solver Postprocessing -------------------------
Deleted CNumerics container.
Deleted CIntegration container.
Deleted CSolver container.
Deleted CIteration container.
Deleted CInterface container.
Deleted CGeometry container.
Deleted CFreeFormDefBox class.
Deleted CSurfaceMovement class.
Deleted CVolumetricMovement class.
Deleted CConfig container.
Deleted nInst container.
Deleted COutput class.
-------------------------------------------------------------------------

------------------------- Exit Success (SU2_CFD) ------------------------

