  
       XFOIL         Version 6.99
  
 Calculated polar for: Airfoil 31                                      
  
 1 1 Reynolds number fixed          Mach number fixed         
  
 xtrf =   0.300 (top)        0.300 (bottom)  
 Mach =   0.250     Re =    15.260 e 6     Ncrit =   9.000  9.000
  
   alpha    CL        CD       CDp       CM     Top_Xtr  Bot_Xtr  Top_Itr  Bot_Itr
  ------ -------- --------- --------- -------- -------- -------- -------- --------
   1.667   0.5373   0.00643   0.00030  -0.0921   0.0860   0.3000  64.1750 110.6225
   3.333   0.7355   0.00723  -0.00018  -0.0934   0.0248   0.3000  69.7773 110.6225
   5.000   0.9329   0.00808  -0.00160  -0.0939   0.0109   0.3000  72.6507 110.6225
