WARNING: The current SST-1994m model is inconsistent with literature. We recommend using the SST-2003m model.
In SU2 v8 the 2003m model will become default, and the inconsistency will be fixed.

-------------------------------------------------------------------------
|    ___ _   _ ___                                                      |
|   / __| | | |_  )   Release 7.4.0 "Blackbird"                         |
|   \__ \ |_| |/ /                                                      |
|   |___/\___//___|   Suite (Computational Fluid Dynamics Code)         |
|                                                                       |
-------------------------------------------------------------------------
| SU2 Project Website: https://su2code.github.io                        |
|                                                                       |
| The SU2 Project is maintained by the SU2 Foundation                   |
| (http://su2foundation.org)                                            |
-------------------------------------------------------------------------
| Copyright 2012-2022, SU2 Contributors                                 |
|                                                                       |
| SU2 is free software; you can redistribute it and/or                  |
| modify it under the terms of the GNU Lesser General Public            |
| License as published by the Free Software Foundation; either          |
| version 2.1 of the License, or (at your option) any later version.    |
|                                                                       |
| SU2 is distributed in the hope that it will be useful,                |
| but WITHOUT ANY WARRANTY; without even the implied warranty of        |
| MERCHANTABILITY or FITNESS FOR A PARTICULAR PURPOSE. See the GNU      |
| Lesser General Public License for more details.                       |
|                                                                       |
| You should have received a copy of the GNU Lesser General Public      |
| License along with SU2. If not, see <http://www.gnu.org/licenses/>.   |
-------------------------------------------------------------------------
WARNING: The current SST-1994m model is inconsistent with literature. We recommend using the SST-2003m model.
In SU2 v8 the 2003m model will become default, and the inconsistency will be fixed.

Parsing config file for zone 0
WARNING: The current SST-1994m model is inconsistent with literature. We recommend using the SST-2003m model.
In SU2 v8 the 2003m model will become default, and the inconsistency will be fixed.

----------------- Physical Case Definition ( Zone 0 ) -------------------
Compressible RANS equations.
Turbulence model: Menter's k-omega SST-1994m with no production modification.
Hybrid RANS/LES: No Hybrid RANS/LES
Mach number: 0.2.
Angle of attack (AoA): 10 deg, and angle of sideslip (AoS): 0 deg.
Reynolds number: 1.22082e+07. Reference length 2.62.
No restart solution, use the values at infinity (freestream).
Non-Dimensional simulation (V=Mach, Rho=1.0, T=1.0 at the farfield).
The reference area is 2.62 m^2.
The semi-span will be computed using the max y(3D) value.
The reference length is 2.62 m.
Reference origin for moment evaluation is (0, 0, 0).
Surface(s) where the force coefficients are evaluated: wall.

Surface(s) plotted in the output file: wall.
Input mesh file name: su2meshEx.su2

--------------- Space Numerical Integration ( Zone 0 ) ------------------
Roe (with entropy fix = 1e-05) solver for the flow inviscid terms.
Standard Roe without low-dissipation function.
Second order integration in space, with slope limiter.
Van Albada slope-limiting method implemented by edges.
Scalar upwind solver for the turbulence model.
First order integration in space.
Average of gradients with correction (viscous flow terms).
Average of gradients with correction (viscous turbulence terms).
Gradient for upwind reconstruction: Green-Gauss.
Gradient for viscous and source terms: Green-Gauss.

--------------- Time Numerical Integration  ( Zone 0 ) ------------------
Local time stepping (steady state simulation).
Euler implicit method for the flow equations.
FGMRES is used for solving the linear system.
Using a ILU(0) preconditioning.
Convergence criteria of the linear solver: 0.2.
Max number of linear iterations: 4.
CFL adaptation. Factor down: 0.1, factor up: 1.2,
                lower limit: 25, upper limit: 1000,
                acceptable linear residual: 0.001.
Courant-Friedrichs-Lewy number:       25
Euler implicit time integration for the turbulence model.

------------------ Convergence Criteria  ( Zone 0 ) ---------------------
Maximum number of solver subiterations: 50000.
Begin convergence monitoring at iteration 10.
Residual minimum value: 1e-11.5.
Cauchy series min. value: 5e-07.
Number of Cauchy elements: 500.
Begin windowed time average at iteration 0.

-------------------- Output Information ( Zone 0 ) ----------------------
File writing frequency: 
+------------------------------------+
|                     File| Frequency|
+------------------------------------+
|                  RESTART|       100|
|                 PARAVIEW|       100|
|         SURFACE_PARAVIEW|       100|
+------------------------------------+
Writing the convergence history file every 1 inner iterations.
Writing the screen convergence history every 25 inner iterations.
The tabular file format is CSV (.csv).
Convergence history file name: history.
Forces breakdown file name: forces_breakdown.dat.
Surface file name: surface.
Volume file name: vol_solution.
Restart file name: restart.dat.

------------- Config File Boundary Information ( Zone 0 ) ---------------
+-----------------------------------------------------------------------+
|                        Marker Type|                        Marker Name|
+-----------------------------------------------------------------------+
|                          Far-field|                          far-field|
+-----------------------------------------------------------------------+
|                     Heat flux wall|                               wall|
+-----------------------------------------------------------------------+

-------------------- Output Preprocessing ( Zone 0 ) --------------------

WARNING: SURFACE_PRESSURE_DROP can only be computed for at least 2 surfaces (outlet, inlet, ...)

  Info: Ignoring the following screen output fields:
  RMS_NU_TILDE
Screen output fields: INNER_ITER, RMS_DENSITY, RMS_MOMENTUM-X, RMS_MOMENTUM-Y, RMS_ENERGY, DRAG, LIFT, MOMENT_Z, LINSOL_RESIDUAL
History output group(s): ITER, RMS_RES, AERO_COEFF
Convergence field(s): LIFT
Warning: No (valid) fields chosen for time convergence monitoring. Time convergence monitoring inactive.
Volume output fields: COORDINATES, SOLUTION, PRIMITIVE

------------------- Geometry Preprocessing ( Zone 0 ) -------------------
Two dimensional problem.
82001 grid points before partitioning.
110096 volume elements before partitioning.
2 surface markers.
76 boundary elements in index 0 (Marker = far-field).
723 boundary elements in index 1 (Marker = wall).
Executing the partitioning functions.
Building the graph adjacency structure.
Calling ParMETIS... graph partitioning complete (1791 edge cuts).
Distributing ParMETIS coloring.
Rebalancing vertices.
Rebalancing volume element connectivity.
Rebalancing markers and surface elements.
84501 vertices including ghost points. 
111887 interior elements including halo cells. 
58082 triangles.
53805 quadrilaterals.
Establishing MPI communication patterns.
Setting point connectivity.
Renumbering points (Reverse Cuthill McKee Ordering).
Recomputing point connectivity.
Setting element connectivity.
Checking the numerical grid orientation.
All volume elements are correctly orientend.
All surface elements are correctly orientend.
Identifying edges and vertices.
Setting the control volume structure.
Area of the computational grid: 98853.7.
Searching for the closest normal neighbors to the surfaces.
Storing a mapping from global to local point index.
Compute the surface curvature.
Max K: 1170.36. Mean K: 8.52212. Standard deviation K: 78.5888.
Checking for periodicity.
Computing mesh quality statistics for the dual control volumes.
+--------------------------------------------------------------+
|           Mesh Quality Metric|        Minimum|        Maximum|
+--------------------------------------------------------------+
|    Orthogonality Angle (deg.)|        60.5564|             90|
|     CV Face Area Aspect Ratio|        1.00119|        10426.8|
|           CV Sub-Volume Ratio|              1|        5.72924|
+--------------------------------------------------------------+
Finding max control volume width.
Communicating number of neighbors.
Wetted area = 6.32542 m.
Area projection in the x-plane = 0.630114 m, y-plane = 2.96262 m.
Max. coordinate in the x-direction = 2.9339 m, y-direction = 0.165086 m.
Min. coordinate in the x-direction = 0 m, y-direction = -0.309055 m.
Computing wall distances.

-------------------- Solver Preprocessing ( Zone 0 ) --------------------
Viscous flow: Computing pressure using the ideal gas law
based on the free-stream temperature and a density computed
from the Reynolds number.
Force coefficients computed using free-stream values.

-- Models:
+------------------------------------------------------------------------------+
|          Viscosity Model|        Conductivity Model|              Fluid Model|
+------------------------------------------------------------------------------+
|               SUTHERLAND|          CONSTANT_PRANDTL|             STANDARD_AIR|
+------------------------------------------------------------------------------+
-- Fluid properties:
+------------------------------------------------------------------------------+
|                  Name|    Dim. value|    Ref. value|      Unit|Non-dim. value|
+------------------------------------------------------------------------------+
|        Ref. Viscosity|     1.716e-05|       416.883|   N.s/m^2|   4.11626e-08|
|      Sutherland Temp.|        273.15|        288.16|         K|      0.947911|
|     Sutherland Const.|         110.4|        288.16|         K|       0.38312|
+------------------------------------------------------------------------------+
|        Prandtl (Lam.)|             -|             -|         -|          0.72|
|       Prandtl (Turb.)|             -|             -|         -|           0.9|
+------------------------------------------------------------------------------+
|          Gas Constant|       287.058|       401.881|  N.m/kg.K|      0.714286|
|      Spec. Heat Ratio|             -|             -|         -|           1.4|
+------------------------------------------------------------------------------+
-- Initial and free-stream conditions:
+------------------------------------------------------------------------------+
|                  Name|    Dim. value|    Ref. value|      Unit|Non-dim. value|
+------------------------------------------------------------------------------+
|       Static Pressure|        101333|        141867|        Pa|      0.714286|
|               Density|       1.22504|       1.22504|    kg/m^3|             1|
|           Temperature|        288.16|        288.16|         K|             1|
|          Total Energy|        209130|        115806|   m^2/s^2|       1.80586|
|            Velocity-X|       67.0266|       340.303|       m/s|      0.196962|
|            Velocity-Y|       11.8186|       340.303|       m/s|     0.0347296|
|    Velocity Magnitude|       68.0606|       340.303|       m/s|           0.2|
+------------------------------------------------------------------------------+
|             Viscosity|   1.78935e-05|       416.883|   N.s/m^2|    4.2922e-08|
|          Conductivity|             -|        167537|   W/m^2.K|             -|
|     Turb. Kin. Energy|       17.3709|        115806|   m^2/s^2|       0.00015|
|     Spec. Dissipation|        118926|       340.303|       1/s|       349.471|
+------------------------------------------------------------------------------+
|           Mach Number|             -|             -|         -|           0.2|
|       Reynolds Number|             -|             -|         -|   1.22082e+07|
+------------------------------------------------------------------------------+
Initialize Jacobian structure (Navier-Stokes). MG level: 0.
Initialize Jacobian structure (SST model).

------------------- Numerics Preprocessing ( Zone 0 ) -------------------

----------------- Integration Preprocessing ( Zone 0 ) ------------------

------------------- Iteration Preprocessing ( Zone 0 ) ------------------
Euler/Navier-Stokes/RANS fluid iteration.

------------------------------ Begin Solver -----------------------------

Simulation Run using the Single-zone Driver
WARNING: SU2 was not compiled for an AVX-capable architecture.
+--------------------------------------------------------------------------------------------------------------------+
|  Inner_Iter|    rms[Rho]|   rms[RhoU]|   rms[RhoV]|   rms[RhoE]|          CD|          CL|         CMz|   LinSolRes|
+--------------------------------------------------------------------------------------------------------------------+
|           0|   -4.217177|  -15.961043|  -15.974257|   -3.815751|    3.410221|    5.224624|    4.255282|   -0.863936|
|          25|   -5.085903|   -4.985418|   -4.961826|   -4.682647|   -1.115026|   -0.051459|   -0.894804|   -0.775275|
|          50|   -5.484702|   -5.095175|   -5.189390|   -5.091113|    0.964022|    2.822161|    1.940466|   -0.599916|
|          75|   -5.520862|   -5.047936|   -5.260153|   -5.122541|    0.201840|    2.032731|    0.756627|   -0.718164|
|         100|   -5.654219|   -5.094813|   -5.336307|   -5.237019|    0.226920|    2.360520|    1.115712|   -0.618238|
+-----------------------------------------------------------------------+
|        File Writing Summary       |              Filename             |
+-----------------------------------------------------------------------+
|SU2 binary restart                 |restart.dat                        |
|Paraview                           |vol_solution.vtu                   |
|Paraview surface                   |surface.vtu                        |
+-----------------------------------------------------------------------+
+--------------------------------------------------------------------------------------------------------------------+
|  Inner_Iter|    rms[Rho]|   rms[RhoU]|   rms[RhoV]|   rms[RhoE]|          CD|          CL|         CMz|   LinSolRes|
+--------------------------------------------------------------------------------------------------------------------+
|         125|   -5.786374|   -5.397378|   -5.574130|   -5.391356|    0.325488|    2.505173|    1.085572|   -0.817930|
|         150|   -5.929429|   -5.652581|   -5.740559|   -5.548242|    0.341988|    2.850561|    1.292148|   -0.618896|
|         175|   -6.095069|   -5.672273|   -5.906517|   -5.704852|    0.103971|    2.313354|    0.840808|   -0.597313|
|         200|   -6.166761|   -5.771308|   -5.964152|   -5.788347|    0.340014|    2.733520|    1.223490|   -0.625077|
+-----------------------------------------------------------------------+
|        File Writing Summary       |              Filename             |
+-----------------------------------------------------------------------+
|SU2 binary restart                 |restart.dat                        |
|Paraview                           |vol_solution.vtu                   |
|Paraview surface                   |surface.vtu                        |
+-----------------------------------------------------------------------+
+--------------------------------------------------------------------------------------------------------------------+
|  Inner_Iter|    rms[Rho]|   rms[RhoU]|   rms[RhoV]|   rms[RhoE]|          CD|          CL|         CMz|   LinSolRes|
+--------------------------------------------------------------------------------------------------------------------+
|         225|   -6.326335|   -5.727654|   -5.950460|   -5.936147|    0.200986|    2.501329|    0.934569|   -0.663665|
|         250|   -6.209573|   -5.728823|   -5.953568|   -5.842652|    0.317907|    2.644762|    1.106253|   -0.687644|
|         275|   -6.228940|   -5.741941|   -5.935106|   -5.865626|    0.273595|    2.631749|    1.013789|   -0.656176|
|         300|   -6.324763|   -5.760597|   -6.002653|   -5.967220|    0.315819|    2.624196|    1.034062|   -0.669609|
+-----------------------------------------------------------------------+
|        File Writing Summary       |              Filename             |
+-----------------------------------------------------------------------+
|SU2 binary restart                 |restart.dat                        |
|Paraview                           |vol_solution.vtu                   |
|Paraview surface                   |surface.vtu                        |
+-----------------------------------------------------------------------+
+--------------------------------------------------------------------------------------------------------------------+
|  Inner_Iter|    rms[Rho]|   rms[RhoU]|   rms[RhoV]|   rms[RhoE]|          CD|          CL|         CMz|   LinSolRes|
+--------------------------------------------------------------------------------------------------------------------+
|         325|   -6.237335|   -5.785498|   -6.028747|   -5.892968|    0.323436|    2.672732|    1.040336|   -0.777383|
|         350|   -6.322887|   -5.766351|   -6.031876|   -5.969871|    0.310549|    2.620508|    0.983670|   -0.639753|
|         375|   -6.282015|   -5.704281|   -5.966246|   -5.932939|    0.353622|    2.719804|    1.056905|   -0.597469|
|         400|   -6.290453|   -5.680993|   -5.904731|   -5.930242|    0.334283|    2.664071|    1.017629|   -0.722368|
+-----------------------------------------------------------------------+
|        File Writing Summary       |              Filename             |
+-----------------------------------------------------------------------+
|SU2 binary restart                 |restart.dat                        |
|Paraview                           |vol_solution.vtu                   |
|Paraview surface                   |surface.vtu                        |
+-----------------------------------------------------------------------+
+--------------------------------------------------------------------------------------------------------------------+
|  Inner_Iter|    rms[Rho]|   rms[RhoU]|   rms[RhoV]|   rms[RhoE]|          CD|          CL|         CMz|   LinSolRes|
+--------------------------------------------------------------------------------------------------------------------+
|         425|   -6.281943|   -5.683520|   -5.900451|   -5.926412|    0.382666|    2.790915|    1.109025|   -0.684803|
|         450|   -6.324311|   -5.699838|   -5.907899|   -5.965328|    0.383701|    2.841437|    1.146003|   -0.787752|
|         475|   -6.337932|   -5.722273|   -5.907453|   -5.976622|    0.423713|    2.926868|    1.211004|   -0.799625|
|         500|   -6.372674|   -5.779274|   -5.979163|   -6.020277|    0.462956|    3.109484|    1.349799|   -0.656992|
+-----------------------------------------------------------------------+
|        File Writing Summary       |              Filename             |
+-----------------------------------------------------------------------+
|SU2 binary restart                 |restart.dat                        |
|Paraview                           |vol_solution.vtu                   |
|Paraview surface                   |surface.vtu                        |
+-----------------------------------------------------------------------+
+--------------------------------------------------------------------------------------------------------------------+
|  Inner_Iter|    rms[Rho]|   rms[RhoU]|   rms[RhoV]|   rms[RhoE]|          CD|          CL|         CMz|   LinSolRes|
+--------------------------------------------------------------------------------------------------------------------+
|         525|   -6.392426|   -5.853502|   -5.971917|   -6.068072|    0.509043|    3.238264|    1.462015|   -0.659662|
|         550|   -6.445914|   -5.896224|   -6.042888|   -6.122352|    0.564629|    3.438201|    1.624101|   -0.625982|
|         575|   -6.443462|   -5.847266|   -6.016313|   -6.128516|    0.597750|    3.504290|    1.716211|   -0.570278|
|         600|   -6.420416|   -5.763672|   -5.979156|   -6.098016|    0.634196|    3.561991|    1.821559|   -0.781843|
+-----------------------------------------------------------------------+
|        File Writing Summary       |              Filename             |
+-----------------------------------------------------------------------+
|SU2 binary restart                 |restart.dat                        |
|Paraview                           |vol_solution.vtu                   |
|Paraview surface                   |surface.vtu                        |
+-----------------------------------------------------------------------+
+--------------------------------------------------------------------------------------------------------------------+
|  Inner_Iter|    rms[Rho]|   rms[RhoU]|   rms[RhoV]|   rms[RhoE]|          CD|          CL|         CMz|   LinSolRes|
+--------------------------------------------------------------------------------------------------------------------+
|         625|   -6.334571|   -5.631457|   -5.844666|   -5.996393|    0.665577|    3.491883|    1.859531|   -0.753619|
|         650|   -6.103784|   -5.426674|   -5.618979|   -5.745981|    0.654749|    3.193647|    1.761109|   -0.651727|
|         675|   -5.831877|   -5.099461|   -5.285070|   -5.481131|    0.505383|    2.282428|    1.294541|   -0.707907|
|         700|   -5.468453|   -4.719709|   -4.962278|   -5.087005|    0.350528|    1.046243|    0.690702|   -0.633075|
+-----------------------------------------------------------------------+
|        File Writing Summary       |              Filename             |
+-----------------------------------------------------------------------+
|SU2 binary restart                 |restart.dat                        |
|Paraview                           |vol_solution.vtu                   |
|Paraview surface                   |surface.vtu                        |
+-----------------------------------------------------------------------+
+--------------------------------------------------------------------------------------------------------------------+
|  Inner_Iter|    rms[Rho]|   rms[RhoU]|   rms[RhoV]|   rms[RhoE]|          CD|          CL|         CMz|   LinSolRes|
+--------------------------------------------------------------------------------------------------------------------+
|         725|   -5.184627|   -4.479627|   -4.781852|   -4.779540|    0.199574|    0.307765|    0.304249|   -0.627791|
|         750|   -5.332773|   -4.573308|   -4.738325|   -4.874235|    0.286205|    0.673527|    0.613440|   -0.690304|
|         775|   -4.908780|   -4.394044|   -4.465810|   -4.524252|    0.437440|    1.188082|    0.944568|   -0.632343|
|         800|   -4.936260|   -4.244955|   -4.387631|   -4.535077|    0.109051|    0.315573|    0.180231|   -0.682869|
+-----------------------------------------------------------------------+
|        File Writing Summary       |              Filename             |
+-----------------------------------------------------------------------+
|SU2 binary restart                 |restart.dat                        |
|Paraview                           |vol_solution.vtu                   |
|Paraview surface                   |surface.vtu                        |
+-----------------------------------------------------------------------+
+--------------------------------------------------------------------------------------------------------------------+
|  Inner_Iter|    rms[Rho]|   rms[RhoU]|   rms[RhoV]|   rms[RhoE]|          CD|          CL|         CMz|   LinSolRes|
+--------------------------------------------------------------------------------------------------------------------+
|         825|   -4.693339|   -4.252530|   -4.403305|   -4.290716|    0.406877|    1.088513|    0.755435|   -0.678814|
|         850|   -5.030900|   -4.516714|   -4.621158|   -4.612020|    0.234057|    1.099092|    0.580133|   -0.672300|
|         875|   -5.585956|   -4.994020|   -5.081098|   -5.133815|    0.346168|    1.364071|    0.808732|   -0.598576|
|         900|   -6.115469|   -5.401809|   -5.612749|   -5.693159|    0.316369|    1.345647|    0.710351|   -0.603749|
+-----------------------------------------------------------------------+
|        File Writing Summary       |              Filename             |
+-----------------------------------------------------------------------+
|SU2 binary restart                 |restart.dat                        |
|Paraview                           |vol_solution.vtu                   |
|Paraview surface                   |surface.vtu                        |
+-----------------------------------------------------------------------+
+--------------------------------------------------------------------------------------------------------------------+
|  Inner_Iter|    rms[Rho]|   rms[RhoU]|   rms[RhoV]|   rms[RhoE]|          CD|          CL|         CMz|   LinSolRes|
+--------------------------------------------------------------------------------------------------------------------+
|         925|   -6.125223|   -5.331071|   -5.593028|   -5.733925|    0.256306|    1.193930|    0.585898|   -0.620957|
|         950|   -6.107087|   -5.497557|   -5.585344|   -5.710989|    0.302270|    1.470169|    0.769254|   -0.643368|
|         975|   -6.252393|   -5.590972|   -5.730233|   -5.826603|    0.262133|    1.288555|    0.613507|   -0.832642|
|        1000|   -6.439318|   -5.734238|   -5.963035|   -6.059040|    0.299016|    1.493697|    0.765605|   -0.611983|
+-----------------------------------------------------------------------+
|        File Writing Summary       |              Filename             |
+-----------------------------------------------------------------------+
|SU2 binary restart                 |restart.dat                        |
|Paraview                           |vol_solution.vtu                   |
|Paraview surface                   |surface.vtu                        |
+-----------------------------------------------------------------------+
+--------------------------------------------------------------------------------------------------------------------+
|  Inner_Iter|    rms[Rho]|   rms[RhoU]|   rms[RhoV]|   rms[RhoE]|          CD|          CL|         CMz|   LinSolRes|
+--------------------------------------------------------------------------------------------------------------------+
|        1025|   -6.451684|   -5.802423|   -5.989720|   -6.060063|    0.278150|    1.432755|    0.679812|   -0.831677|
|        1050|   -6.548873|   -5.797262|   -6.051186|   -6.125312|    0.289790|    1.480046|    0.713332|   -0.610153|
|        1075|   -6.684757|   -6.041345|   -6.227958|   -6.308080|    0.290335|    1.578206|    0.744551|   -0.718281|
|        1100|   -6.617175|   -6.037299|   -6.226498|   -6.261271|    0.305457|    1.602838|    0.754045|   -0.642479|
+-----------------------------------------------------------------------+
|        File Writing Summary       |              Filename             |
+-----------------------------------------------------------------------+
|SU2 binary restart                 |restart.dat                        |
|Paraview                           |vol_solution.vtu                   |
|Paraview surface                   |surface.vtu                        |
+-----------------------------------------------------------------------+
+--------------------------------------------------------------------------------------------------------------------+
|  Inner_Iter|    rms[Rho]|   rms[RhoU]|   rms[RhoV]|   rms[RhoE]|          CD|          CL|         CMz|   LinSolRes|
+--------------------------------------------------------------------------------------------------------------------+
|        1125|   -6.645188|   -5.941817|   -6.168791|   -6.292068|    0.315561|    1.739060|    0.825561|   -0.601136|
|        1150|   -6.605059|   -5.989168|   -6.164499|   -6.280558|    0.328317|    1.773110|    0.843893|   -0.790715|
|        1175|   -6.601699|   -5.913339|   -6.131655|   -6.269222|    0.361958|    1.928578|    0.937837|   -0.638706|
|        1200|   -6.527285|   -5.898251|   -6.012794|   -6.177850|    0.375035|    2.025451|    1.002561|   -0.751641|
+-----------------------------------------------------------------------+
|        File Writing Summary       |              Filename             |
+-----------------------------------------------------------------------+
|SU2 binary restart                 |restart.dat                        |
|Paraview                           |vol_solution.vtu                   |
|Paraview surface                   |surface.vtu                        |
+-----------------------------------------------------------------------+
+--------------------------------------------------------------------------------------------------------------------+
|  Inner_Iter|    rms[Rho]|   rms[RhoU]|   rms[RhoV]|   rms[RhoE]|          CD|          CL|         CMz|   LinSolRes|
+--------------------------------------------------------------------------------------------------------------------+
|        1225|   -6.613738|   -5.964204|   -6.120909|   -6.322264|    0.400216|    2.082160|    1.045734|   -0.726074|
|        1250|   -6.711180|   -5.933797|   -6.215287|   -6.384602|    0.414618|    2.130592|    1.084016|   -0.676072|
|        1275|   -6.551777|   -5.734135|   -6.060161|   -6.187530|    0.407972|    2.052232|    1.050206|   -0.655097|
|        1300|   -6.318166|   -5.537861|   -5.776453|   -5.925145|    0.386406|    1.850268|    0.947084|   -0.637766|
+-----------------------------------------------------------------------+
|        File Writing Summary       |              Filename             |
+-----------------------------------------------------------------------+
|SU2 binary restart                 |restart.dat                        |
|Paraview                           |vol_solution.vtu                   |
|Paraview surface                   |surface.vtu                        |
+-----------------------------------------------------------------------+
+--------------------------------------------------------------------------------------------------------------------+
|  Inner_Iter|    rms[Rho]|   rms[RhoU]|   rms[RhoV]|   rms[RhoE]|          CD|          CL|         CMz|   LinSolRes|
+--------------------------------------------------------------------------------------------------------------------+
|        1325|   -6.277613|   -5.582971|   -5.700790|   -5.928594|    0.391773|    1.712377|    0.922376|   -0.680302|
|        1350|   -6.463312|   -5.524077|   -5.757770|   -6.031614|    0.394227|    1.567084|    0.879902|   -0.602726|
|        1375|   -6.308774|   -5.485364|   -5.693170|   -5.908716|    0.367917|    1.341177|    0.786380|   -0.633944|
|        1400|   -6.179683|   -5.479273|   -5.651967|   -5.781675|    0.370035|    1.258539|    0.772545|   -0.641426|
+-----------------------------------------------------------------------+
|        File Writing Summary       |              Filename             |
+-----------------------------------------------------------------------+
|SU2 binary restart                 |restart.dat                        |
|Paraview                           |vol_solution.vtu                   |
|Paraview surface                   |surface.vtu                        |
+-----------------------------------------------------------------------+
+--------------------------------------------------------------------------------------------------------------------+
|  Inner_Iter|    rms[Rho]|   rms[RhoU]|   rms[RhoV]|   rms[RhoE]|          CD|          CL|         CMz|   LinSolRes|
+--------------------------------------------------------------------------------------------------------------------+
|        1425|   -6.257041|   -5.429768|   -5.671736|   -5.853745|    0.302363|    0.982359|    0.599325|   -0.688681|
|        1450|   -6.195981|   -5.370076|   -5.537130|   -5.787547|    0.295397|    0.906710|    0.576526|   -0.800892|
|        1475|   -6.349957|   -5.436965|   -5.632192|   -5.906142|    0.276327|    0.872769|    0.550184|   -0.648355|
|        1500|   -6.299309|   -5.549028|   -5.734485|   -5.974872|    0.295365|    0.927321|    0.592370|   -0.675647|
+-----------------------------------------------------------------------+
|        File Writing Summary       |              Filename             |
+-----------------------------------------------------------------------+
|SU2 binary restart                 |restart.dat                        |
|Paraview                           |vol_solution.vtu                   |
|Paraview surface                   |surface.vtu                        |
+-----------------------------------------------------------------------+
+--------------------------------------------------------------------------------------------------------------------+
|  Inner_Iter|    rms[Rho]|   rms[RhoU]|   rms[RhoV]|   rms[RhoE]|          CD|          CL|         CMz|   LinSolRes|
+--------------------------------------------------------------------------------------------------------------------+
|        1525|   -6.188858|   -5.411729|   -5.539863|   -5.811657|    0.303961|    1.046851|    0.642709|   -0.621348|
|        1550|   -6.146253|   -5.311173|   -5.445669|   -5.753464|    0.288045|    1.024368|    0.598549|   -0.591001|
|        1575|   -6.115519|   -5.171114|   -5.365759|   -5.699614|    0.294596|    1.103271|    0.636507|   -0.867019|
|        1600|   -6.201981|   -5.322711|   -5.484602|   -5.752791|    0.302421|    1.225295|    0.680518|   -0.692462|
+-----------------------------------------------------------------------+
|        File Writing Summary       |              Filename             |
+-----------------------------------------------------------------------+
|SU2 binary restart                 |restart.dat                        |
|Paraview                           |vol_solution.vtu                   |
|Paraview surface                   |surface.vtu                        |
+-----------------------------------------------------------------------+
+--------------------------------------------------------------------------------------------------------------------+
|  Inner_Iter|    rms[Rho]|   rms[RhoU]|   rms[RhoV]|   rms[RhoE]|          CD|          CL|         CMz|   LinSolRes|
+--------------------------------------------------------------------------------------------------------------------+
|        1625|   -6.570213|   -5.769145|   -5.949219|   -6.095872|    0.306206|    1.272541|    0.695751|   -0.652676|
|        1650|   -6.831145|   -6.047334|   -6.424363|   -6.462751|    0.293594|    1.323430|    0.700958|   -0.619984|
|        1675|   -6.925487|   -6.145452|   -6.487726|   -6.599563|    0.300226|    1.353563|    0.708300|   -0.747134|
|        1700|   -6.989441|   -6.158063|   -6.544419|   -6.621112|    0.297520|    1.418361|    0.731540|   -0.566649|
+-----------------------------------------------------------------------+
|        File Writing Summary       |              Filename             |
+-----------------------------------------------------------------------+
|SU2 binary restart                 |restart.dat                        |
|Paraview                           |vol_solution.vtu                   |
|Paraview surface                   |surface.vtu                        |
+-----------------------------------------------------------------------+
+--------------------------------------------------------------------------------------------------------------------+
|  Inner_Iter|    rms[Rho]|   rms[RhoU]|   rms[RhoV]|   rms[RhoE]|          CD|          CL|         CMz|   LinSolRes|
+--------------------------------------------------------------------------------------------------------------------+
|        1725|   -6.970094|   -6.208602|   -6.559419|   -6.626105|    0.298393|    1.437238|    0.732781|   -0.640932|
|        1750|   -7.028910|   -6.270339|   -6.650614|   -6.705189|    0.303444|    1.491382|    0.755454|   -0.652565|
|        1775|   -7.072701|   -6.303241|   -6.692597|   -6.743110|    0.305067|    1.522182|    0.766244|   -0.652957|
|        1800|   -7.082686|   -6.383532|   -6.699027|   -6.770423|    0.311355|    1.561638|    0.783458|   -0.618422|
+-----------------------------------------------------------------------+
|        File Writing Summary       |              Filename             |
+-----------------------------------------------------------------------+
|SU2 binary restart                 |restart.dat                        |
|Paraview                           |vol_solution.vtu                   |
|Paraview surface                   |surface.vtu                        |
+-----------------------------------------------------------------------+
+--------------------------------------------------------------------------------------------------------------------+
|  Inner_Iter|    rms[Rho]|   rms[RhoU]|   rms[RhoV]|   rms[RhoE]|          CD|          CL|         CMz|   LinSolRes|
+--------------------------------------------------------------------------------------------------------------------+
|        1825|   -7.127211|   -6.381721|   -6.758682|   -6.800752|    0.317130|    1.600530|    0.802295|   -0.643746|
|        1850|   -7.064538|   -6.378239|   -6.660259|   -6.740615|    0.324697|    1.640225|    0.825199|   -0.566322|
|        1875|   -7.097949|   -6.397515|   -6.657700|   -6.807254|    0.331479|    1.667511|    0.841080|   -0.707265|
|        1900|   -7.118885|   -6.391297|   -6.704651|   -6.815487|    0.341708|    1.701187|    0.867559|   -0.664156|
+-----------------------------------------------------------------------+
|        File Writing Summary       |              Filename             |
+-----------------------------------------------------------------------+
|SU2 binary restart                 |restart.dat                        |
|Paraview                           |vol_solution.vtu                   |
|Paraview surface                   |surface.vtu                        |
+-----------------------------------------------------------------------+
+--------------------------------------------------------------------------------------------------------------------+
|  Inner_Iter|    rms[Rho]|   rms[RhoU]|   rms[RhoV]|   rms[RhoE]|          CD|          CL|         CMz|   LinSolRes|
+--------------------------------------------------------------------------------------------------------------------+
|        1925|   -7.078158|   -6.342863|   -6.644957|   -6.765120|    0.349271|    1.715868|    0.882893|   -0.691926|
|        1950|   -7.058174|   -6.232865|   -6.586868|   -6.739688|    0.353769|    1.702849|    0.884546|   -0.743965|
|        1975|   -6.920547|   -6.098810|   -6.426003|   -6.571792|    0.354095|    1.667758|    0.875144|   -0.777751|
|        2000|   -6.743208|   -5.985562|   -6.261127|   -6.392129|    0.347894|    1.593087|    0.843711|   -0.643240|
+-----------------------------------------------------------------------+
|        File Writing Summary       |              Filename             |
+-----------------------------------------------------------------------+
|SU2 binary restart                 |restart.dat                        |
|Paraview                           |vol_solution.vtu                   |
|Paraview surface                   |surface.vtu                        |
+-----------------------------------------------------------------------+
+--------------------------------------------------------------------------------------------------------------------+
|  Inner_Iter|    rms[Rho]|   rms[RhoU]|   rms[RhoV]|   rms[RhoE]|          CD|          CL|         CMz|   LinSolRes|
+--------------------------------------------------------------------------------------------------------------------+
|        2025|   -6.689117|   -5.974037|   -6.190018|   -6.345874|    0.342506|    1.506257|    0.810993|   -0.708213|
|        2050|   -6.851528|   -6.044009|   -6.305613|   -6.561417|    0.341582|    1.441112|    0.791925|   -0.785209|
|        2075|   -6.943359|   -6.033953|   -6.458596|   -6.565218|    0.335372|    1.367459|    0.761627|   -0.757905|
|        2100|   -6.909916|   -6.115236|   -6.518907|   -6.591004|    0.330583|    1.305846|    0.738458|   -0.655720|
+-----------------------------------------------------------------------+
|        File Writing Summary       |              Filename             |
+-----------------------------------------------------------------------+
|SU2 binary restart                 |restart.dat                        |
|Paraview                           |vol_solution.vtu                   |
|Paraview surface                   |surface.vtu                        |
+-----------------------------------------------------------------------+
+--------------------------------------------------------------------------------------------------------------------+
|  Inner_Iter|    rms[Rho]|   rms[RhoU]|   rms[RhoV]|   rms[RhoE]|          CD|          CL|         CMz|   LinSolRes|
+--------------------------------------------------------------------------------------------------------------------+
|        2125|   -6.881733|   -6.133265|   -6.499040|   -6.549778|    0.325355|    1.258425|    0.718992|   -0.747676|
|        2150|   -7.011914|   -6.195821|   -6.654814|   -6.683865|    0.318090|    1.212346|    0.696247|   -0.676398|
|        2175|   -7.080117|   -6.268252|   -6.699466|   -6.779055|    0.315079|    1.193627|    0.688427|   -0.540195|
|        2200|   -7.080177|   -6.284565|   -6.645341|   -6.736000|    0.312634|    1.187094|    0.683959|   -0.614203|
+-----------------------------------------------------------------------+
|        File Writing Summary       |              Filename             |
+-----------------------------------------------------------------------+
|SU2 binary restart                 |restart.dat                        |
|Paraview                           |vol_solution.vtu                   |
|Paraview surface                   |surface.vtu                        |
+-----------------------------------------------------------------------+
+--------------------------------------------------------------------------------------------------------------------+
|  Inner_Iter|    rms[Rho]|   rms[RhoU]|   rms[RhoV]|   rms[RhoE]|          CD|          CL|         CMz|   LinSolRes|
+--------------------------------------------------------------------------------------------------------------------+
|        2225|   -7.069677|   -6.345181|   -6.625548|   -6.731693|    0.309513|    1.185508|    0.678823|   -0.723803|
|        2250|   -7.140162|   -6.428149|   -6.762891|   -6.860687|    0.306753|    1.198046|    0.679443|   -0.690762|
|        2275|   -7.149385|   -6.374384|   -6.730507|   -6.863683|    0.307732|    1.223188|    0.687632|   -0.664825|
|        2300|   -7.071373|   -6.340347|   -6.598055|   -6.725770|    0.306456|    1.246253|    0.692400|   -0.656401|
+-----------------------------------------------------------------------+
|        File Writing Summary       |              Filename             |
+-----------------------------------------------------------------------+
|SU2 binary restart                 |restart.dat                        |
|Paraview                           |vol_solution.vtu                   |
|Paraview surface                   |surface.vtu                        |
+-----------------------------------------------------------------------+
+--------------------------------------------------------------------------------------------------------------------+
|  Inner_Iter|    rms[Rho]|   rms[RhoU]|   rms[RhoV]|   rms[RhoE]|          CD|          CL|         CMz|   LinSolRes|
+--------------------------------------------------------------------------------------------------------------------+
|        2325|   -7.165706|   -6.399765|   -6.652930|   -6.850671|    0.304751|    1.268016|    0.697029|   -0.840557|
|        2350|   -7.163579|   -6.347699|   -6.711465|   -6.816765|    0.307147|    1.299896|    0.709107|   -0.624333|
|        2375|   -7.087002|   -6.348736|   -6.638545|   -6.739911|    0.306214|    1.326763|    0.715744|   -0.624877|
|        2400|   -7.132243|   -6.394315|   -6.685750|   -6.789988|    0.305456|    1.348924|    0.721582|   -0.698086|
+-----------------------------------------------------------------------+
|        File Writing Summary       |              Filename             |
+-----------------------------------------------------------------------+
|SU2 binary restart                 |restart.dat                        |
|Paraview                           |vol_solution.vtu                   |
|Paraview surface                   |surface.vtu                        |
+-----------------------------------------------------------------------+
+--------------------------------------------------------------------------------------------------------------------+
|  Inner_Iter|    rms[Rho]|   rms[RhoU]|   rms[RhoV]|   rms[RhoE]|          CD|          CL|         CMz|   LinSolRes|
+--------------------------------------------------------------------------------------------------------------------+
|        2425|   -7.184373|   -6.383772|   -6.741419|   -6.832692|    0.308855|    1.382547|    0.735846|   -0.606582|
|        2450|   -7.161056|   -6.391819|   -6.675402|   -6.805435|    0.308323|    1.403321|    0.741267|   -0.606854|
|        2475|   -7.249001|   -6.466658|   -6.791106|   -6.913081|    0.309280|    1.423296|    0.748625|   -0.553327|
|        2500|   -7.274772|   -6.516420|   -6.869601|   -6.928682|    0.312547|    1.449301|    0.760954|   -0.597433|
+-----------------------------------------------------------------------+
|        File Writing Summary       |              Filename             |
+-----------------------------------------------------------------------+
|SU2 binary restart                 |restart.dat                        |
|Paraview                           |vol_solution.vtu                   |
|Paraview surface                   |surface.vtu                        |
+-----------------------------------------------------------------------+
+--------------------------------------------------------------------------------------------------------------------+
|  Inner_Iter|    rms[Rho]|   rms[RhoU]|   rms[RhoV]|   rms[RhoE]|          CD|          CL|         CMz|   LinSolRes|
+--------------------------------------------------------------------------------------------------------------------+
|        2525|   -7.278067|   -6.539895|   -6.826870|   -6.927421|    0.313719|    1.463478|    0.766687|   -0.633817|
|        2550|   -7.376070|   -6.605601|   -6.936279|   -7.052937|    0.315230|    1.474940|    0.772332|   -0.681454|
|        2575|   -7.383699|   -6.687486|   -7.062588|   -7.018669|    0.317398|    1.485168|    0.778742|   -0.727078|
|        2600|   -7.497676|   -6.783800|   -7.162495|   -7.183029|    0.319723|    1.491147|    0.783953|   -0.524320|
+-----------------------------------------------------------------------+
|        File Writing Summary       |              Filename             |
+-----------------------------------------------------------------------+
|SU2 binary restart                 |restart.dat                        |
|Paraview                           |vol_solution.vtu                   |
|Paraview surface                   |surface.vtu                        |
+-----------------------------------------------------------------------+
+--------------------------------------------------------------------------------------------------------------------+
|  Inner_Iter|    rms[Rho]|   rms[RhoU]|   rms[RhoV]|   rms[RhoE]|          CD|          CL|         CMz|   LinSolRes|
+--------------------------------------------------------------------------------------------------------------------+
|        2625|   -7.474831|   -6.763794|   -7.125537|   -7.129116|    0.321174|    1.491008|    0.786085|   -0.594139|
|        2650|   -7.483027|   -6.687039|   -7.053571|   -7.141385|    0.321393|    1.483381|    0.784477|   -0.583919|
|        2675|   -7.380276|   -6.624835|   -6.903333|   -7.026180|    0.321564|    1.471610|    0.781446|   -0.601670|
|        2700|   -7.346864|   -6.638446|   -6.895172|   -7.012468|    0.321471|    1.456896|    0.777191|   -0.675358|
+-----------------------------------------------------------------------+
|        File Writing Summary       |              Filename             |
+-----------------------------------------------------------------------+
|SU2 binary restart                 |restart.dat                        |
|Paraview                           |vol_solution.vtu                   |
|Paraview surface                   |surface.vtu                        |
+-----------------------------------------------------------------------+
+--------------------------------------------------------------------------------------------------------------------+
|  Inner_Iter|    rms[Rho]|   rms[RhoU]|   rms[RhoV]|   rms[RhoE]|          CD|          CL|         CMz|   LinSolRes|
+--------------------------------------------------------------------------------------------------------------------+
|        2725|   -7.319631|   -6.635223|   -6.977946|   -6.976203|    0.320486|    1.437896|    0.770489|   -0.624877|
|        2750|   -7.304429|   -6.625766|   -6.973139|   -6.958110|    0.319516|    1.417825|    0.763477|   -0.676405|
|        2775|   -7.314534|   -6.635624|   -6.971529|   -6.973719|    0.318702|    1.399292|    0.757149|   -0.700518|
|        2800|   -7.403228|   -6.650745|   -7.048895|   -7.076575|    0.317625|    1.381496|    0.750658|   -0.651659|
+-----------------------------------------------------------------------+
|        File Writing Summary       |              Filename             |
+-----------------------------------------------------------------------+
|SU2 binary restart                 |restart.dat                        |
|Paraview                           |vol_solution.vtu                   |
|Paraview surface                   |surface.vtu                        |
+-----------------------------------------------------------------------+
+--------------------------------------------------------------------------------------------------------------------+
|  Inner_Iter|    rms[Rho]|   rms[RhoU]|   rms[RhoV]|   rms[RhoE]|          CD|          CL|         CMz|   LinSolRes|
+--------------------------------------------------------------------------------------------------------------------+
|        2825|   -7.435982|   -6.671382|   -7.120252|   -7.109595|    0.316193|    1.364708|    0.743878|   -0.605457|
|        2850|   -7.365812|   -6.697122|   -7.112204|   -7.017737|    0.314635|    1.350236|    0.737729|   -0.622785|
|        2875|   -7.431010|   -6.733542|   -7.127679|   -7.093451|    0.313345|    1.339365|    0.733011|   -0.578358|
|        2900|   -7.527847|   -6.781550|   -7.219725|   -7.191887|    0.312231|    1.331918|    0.729454|   -0.478666|
+-----------------------------------------------------------------------+
|        File Writing Summary       |              Filename             |
+-----------------------------------------------------------------------+
|SU2 binary restart                 |restart.dat                        |
|Paraview                           |vol_solution.vtu                   |
|Paraview surface                   |surface.vtu                        |
+-----------------------------------------------------------------------+
+--------------------------------------------------------------------------------------------------------------------+
|  Inner_Iter|    rms[Rho]|   rms[RhoU]|   rms[RhoV]|   rms[RhoE]|          CD|          CL|         CMz|   LinSolRes|
+--------------------------------------------------------------------------------------------------------------------+
|        2925|   -7.599542|   -6.841129|   -7.277029|   -7.267024|    0.311028|    1.327045|    0.726587|   -0.540768|
|        2950|   -7.592126|   -6.902550|   -7.333305|   -7.256461|    0.310106|    1.325353|    0.724972|   -0.509435|
|        2975|   -7.603470|   -6.941589|   -7.347931|   -7.260347|    0.309448|    1.326677|    0.724561|   -0.441603|
|        3000|   -7.597930|   -6.967266|   -7.311963|   -7.242013|    0.308720|    1.330033|    0.724774|   -0.450542|
+-----------------------------------------------------------------------+
|        File Writing Summary       |              Filename             |
+-----------------------------------------------------------------------+
|SU2 binary restart                 |restart.dat                        |
|Paraview                           |vol_solution.vtu                   |
|Paraview surface                   |surface.vtu                        |
+-----------------------------------------------------------------------+
+--------------------------------------------------------------------------------------------------------------------+
|  Inner_Iter|    rms[Rho]|   rms[RhoU]|   rms[RhoV]|   rms[RhoE]|          CD|          CL|         CMz|   LinSolRes|
+--------------------------------------------------------------------------------------------------------------------+
|        3025|   -7.662213|   -6.982227|   -7.306861|   -7.319739|    0.308187|    1.335134|    0.725680|   -0.451654|
|        3050|   -7.679612|   -6.960009|   -7.320987|   -7.346350|    0.307811|    1.341880|    0.727366|   -0.468555|
|        3075|   -7.566971|   -6.924644|   -7.276256|   -7.209298|    0.307684|    1.350110|    0.729850|   -0.473714|
|        3100|   -7.600231|   -6.904457|   -7.262869|   -7.257374|    0.307575|    1.358568|    0.732418|   -0.436386|
+-----------------------------------------------------------------------+
|        File Writing Summary       |              Filename             |
+-----------------------------------------------------------------------+
|SU2 binary restart                 |restart.dat                        |
|Paraview                           |vol_solution.vtu                   |
|Paraview surface                   |surface.vtu                        |
+-----------------------------------------------------------------------+
+--------------------------------------------------------------------------------------------------------------------+
|  Inner_Iter|    rms[Rho]|   rms[RhoU]|   rms[RhoV]|   rms[RhoE]|          CD|          CL|         CMz|   LinSolRes|
+--------------------------------------------------------------------------------------------------------------------+
|        3125|   -7.565194|   -6.903044|   -7.274462|   -7.211009|    0.307498|    1.367025|    0.734992|   -0.494867|
|        3150|   -7.636721|   -6.925811|   -7.339172|   -7.288775|    0.307142|    1.374605|    0.736975|   -0.568521|
|        3175|   -7.660765|   -6.945078|   -7.410084|   -7.309880|    0.307015|    1.382080|    0.739339|   -0.477063|
|        3200|   -7.619485|   -6.948360|   -7.393249|   -7.261587|    0.307334|    1.390215|    0.742492|   -0.519078|
+-----------------------------------------------------------------------+
|        File Writing Summary       |              Filename             |
+-----------------------------------------------------------------------+
|SU2 binary restart                 |restart.dat                        |
|Paraview                           |vol_solution.vtu                   |
|Paraview surface                   |surface.vtu                        |
+-----------------------------------------------------------------------+
+--------------------------------------------------------------------------------------------------------------------+
|  Inner_Iter|    rms[Rho]|   rms[RhoU]|   rms[RhoV]|   rms[RhoE]|          CD|          CL|         CMz|   LinSolRes|
+--------------------------------------------------------------------------------------------------------------------+
|        3225|   -7.619771|   -6.938375|   -7.305180|   -7.262938|    0.307602|    1.397510|    0.745301|   -0.477883|
|        3250|   -7.641661|   -6.963315|   -7.306113|   -7.285690|    0.307755|    1.403402|    0.747504|   -0.519132|
|        3275|   -7.703220|   -7.019728|   -7.456104|   -7.343796|    0.307943|    1.408396|    0.749511|   -0.356628|
|        3300|   -7.749492|   -7.084639|   -7.574930|   -7.382382|    0.308028|    1.412219|    0.751051|   -0.340557|
+-----------------------------------------------------------------------+
|        File Writing Summary       |              Filename             |
+-----------------------------------------------------------------------+
|SU2 binary restart                 |restart.dat                        |
|Paraview                           |vol_solution.vtu                   |
|Paraview surface                   |surface.vtu                        |
+-----------------------------------------------------------------------+
+--------------------------------------------------------------------------------------------------------------------+
|  Inner_Iter|    rms[Rho]|   rms[RhoU]|   rms[RhoV]|   rms[RhoE]|          CD|          CL|         CMz|   LinSolRes|
+--------------------------------------------------------------------------------------------------------------------+
|        3325|   -7.786108|   -7.159093|   -7.657353|   -7.417294|    0.308110|    1.414817|    0.752187|   -0.334716|
|        3350|   -7.887649|   -7.241624|   -7.717950|   -7.514784|    0.308196|    1.416586|    0.753173|   -0.333516|
|        3375|   -7.930464|   -7.326443|   -7.770284|   -7.550435|    0.308336|    1.417390|    0.753852|   -0.317487|
|        3400|   -8.006098|   -7.385072|   -7.800089|   -7.628672|    0.308335|    1.416979|    0.753975|   -0.328215|
+-----------------------------------------------------------------------+
|        File Writing Summary       |              Filename             |
+-----------------------------------------------------------------------+
|SU2 binary restart                 |restart.dat                        |
|Paraview                           |vol_solution.vtu                   |
|Paraview surface                   |surface.vtu                        |
+-----------------------------------------------------------------------+
+--------------------------------------------------------------------------------------------------------------------+
|  Inner_Iter|    rms[Rho]|   rms[RhoU]|   rms[RhoV]|   rms[RhoE]|          CD|          CL|         CMz|   LinSolRes|
+--------------------------------------------------------------------------------------------------------------------+
|        3425|   -8.045225|   -7.401880|   -7.737246|   -7.672781|    0.308155|    1.415356|    0.753488|   -0.388220|
|        3450|   -8.010087|   -7.383689|   -7.631124|   -7.638407|    0.307928|    1.413050|    0.752752|   -0.366541|
|        3475|   -7.998516|   -7.411467|   -7.627740|   -7.633799|    0.307711|    1.410327|    0.751910|   -0.373544|
|        3500|   -8.067317|   -7.458487|   -7.729235|   -7.717947|    0.307510|    1.407308|    0.750956|   -0.380270|
+-----------------------------------------------------------------------+
|        File Writing Summary       |              Filename             |
+-----------------------------------------------------------------------+
|SU2 binary restart                 |restart.dat                        |
|Paraview                           |vol_solution.vtu                   |
|Paraview surface                   |surface.vtu                        |
+-----------------------------------------------------------------------+
+--------------------------------------------------------------------------------------------------------------------+
|  Inner_Iter|    rms[Rho]|   rms[RhoU]|   rms[RhoV]|   rms[RhoE]|          CD|          CL|         CMz|   LinSolRes|
+--------------------------------------------------------------------------------------------------------------------+
|        3525|   -8.054348|   -7.441582|   -7.781835|   -7.697404|    0.307164|    1.403896|    0.749683|   -0.366698|
|        3550|   -7.996754|   -7.415487|   -7.724146|   -7.636114|    0.306764|    1.400328|    0.748257|   -0.331106|
|        3575|   -7.962928|   -7.394347|   -7.681336|   -7.600768|    0.306338|    1.397047|    0.746885|   -0.320920|
|        3600|   -7.975958|   -7.403450|   -7.730570|   -7.611926|    0.305919|    1.394098|    0.745605|   -0.305493|
+-----------------------------------------------------------------------+
|        File Writing Summary       |              Filename             |
+-----------------------------------------------------------------------+
|SU2 binary restart                 |restart.dat                        |
|Paraview                           |vol_solution.vtu                   |
|Paraview surface                   |surface.vtu                        |
+-----------------------------------------------------------------------+
+--------------------------------------------------------------------------------------------------------------------+
|  Inner_Iter|    rms[Rho]|   rms[RhoU]|   rms[RhoV]|   rms[RhoE]|          CD|          CL|         CMz|   LinSolRes|
+--------------------------------------------------------------------------------------------------------------------+
|        3625|   -8.032766|   -7.444034|   -7.831442|   -7.667730|    0.305507|    1.391732|    0.744542|   -0.309994|
|        3650|   -8.096691|   -7.486478|   -7.919512|   -7.727260|    0.305130|    1.389997|    0.743703|   -0.311503|
|        3675|   -8.158994|   -7.541373|   -7.976603|   -7.787279|    0.304747|    1.388672|    0.742946|   -0.325064|
|        3700|   -8.214643|   -7.593368|   -7.990421|   -7.844010|    0.304301|    1.387914|    0.742320|   -0.342884|
+-----------------------------------------------------------------------+
|        File Writing Summary       |              Filename             |
+-----------------------------------------------------------------------+
|SU2 binary restart                 |restart.dat                        |
|Paraview                           |vol_solution.vtu                   |
|Paraview surface                   |surface.vtu                        |
+-----------------------------------------------------------------------+
+--------------------------------------------------------------------------------------------------------------------+
|  Inner_Iter|    rms[Rho]|   rms[RhoU]|   rms[RhoV]|   rms[RhoE]|          CD|          CL|         CMz|   LinSolRes|
+--------------------------------------------------------------------------------------------------------------------+
|        3725|   -8.199443|   -7.589906|   -7.975676|   -7.825050|    0.303912|    1.387726|    0.741963|   -0.326044|
|        3750|   -8.197673|   -7.529820|   -7.909336|   -7.823239|    0.303683|    1.388426|    0.742070|   -0.355550|
|        3775|   -8.156112|   -7.508340|   -7.809408|   -7.771881|    0.303315|    1.389213|    0.742007|   -0.356100|
|        3800|   -8.203160|   -7.566546|   -7.863273|   -7.828819|    0.302812|    1.389834|    0.741738|   -0.388700|
+-----------------------------------------------------------------------+
|        File Writing Summary       |              Filename             |
+-----------------------------------------------------------------------+
|SU2 binary restart                 |restart.dat                        |
|Paraview                           |vol_solution.vtu                   |
|Paraview surface                   |surface.vtu                        |
+-----------------------------------------------------------------------+
+--------------------------------------------------------------------------------------------------------------------+
|  Inner_Iter|    rms[Rho]|   rms[RhoU]|   rms[RhoV]|   rms[RhoE]|          CD|          CL|         CMz|   LinSolRes|
+--------------------------------------------------------------------------------------------------------------------+
|        3825|   -8.225401|   -7.533440|   -7.928315|   -7.848473|    0.302502|    1.391287|    0.742002|   -0.396892|
|        3850|   -8.121875|   -7.468376|   -7.863628|   -7.746288|    0.302279|    1.393147|    0.742483|   -0.353157|
|        3875|   -8.038226|   -7.413787|   -7.744930|   -7.660293|    0.302058|    1.395149|    0.743017|   -0.351838|
|        3900|   -8.041037|   -7.417746|   -7.755052|   -7.667932|    0.301823|    1.397224|    0.743577|   -0.344925|
+-----------------------------------------------------------------------+
|        File Writing Summary       |              Filename             |
+-----------------------------------------------------------------------+
|SU2 binary restart                 |restart.dat                        |
|Paraview                           |vol_solution.vtu                   |
|Paraview surface                   |surface.vtu                        |
+-----------------------------------------------------------------------+
+--------------------------------------------------------------------------------------------------------------------+
|  Inner_Iter|    rms[Rho]|   rms[RhoU]|   rms[RhoV]|   rms[RhoE]|          CD|          CL|         CMz|   LinSolRes|
+--------------------------------------------------------------------------------------------------------------------+
|        3925|   -8.069237|   -7.433716|   -7.862262|   -7.693407|    0.301538|    1.399188|    0.744046|   -0.320063|
|        3950|   -8.103445|   -7.457365|   -7.937755|   -7.727522|    0.301267|    1.401149|    0.744539|   -0.323592|
|        3975|   -8.117297|   -7.471452|   -7.960806|   -7.740506|    0.301024|    1.403045|    0.745062|   -0.336884|
|        4000|   -8.104702|   -7.473877|   -7.937294|   -7.724352|    0.300805|    1.404853|    0.745590|   -0.310878|
+-----------------------------------------------------------------------+
|        File Writing Summary       |              Filename             |
+-----------------------------------------------------------------------+
|SU2 binary restart                 |restart.dat                        |
|Paraview                           |vol_solution.vtu                   |
|Paraview surface                   |surface.vtu                        |
+-----------------------------------------------------------------------+
+--------------------------------------------------------------------------------------------------------------------+
|  Inner_Iter|    rms[Rho]|   rms[RhoU]|   rms[RhoV]|   rms[RhoE]|          CD|          CL|         CMz|   LinSolRes|
+--------------------------------------------------------------------------------------------------------------------+
|        4025|   -8.109831|   -7.488825|   -7.932465|   -7.726748|    0.300554|    1.406442|    0.746014|   -0.320608|
|        4050|   -8.162062|   -7.520385|   -8.000199|   -7.778831|    0.300311|    1.407821|    0.746385|   -0.312241|
|        4075|   -8.189874|   -7.556334|   -8.055640|   -7.803355|    0.300073|    1.409110|    0.746741|   -0.301147|
|        4100|   -8.245708|   -7.598981|   -8.087904|   -7.859169|    0.299836|    1.410153|    0.747012|   -0.318741|
+-----------------------------------------------------------------------+
|        File Writing Summary       |              Filename             |
+-----------------------------------------------------------------------+
|SU2 binary restart                 |restart.dat                        |
|Paraview                           |vol_solution.vtu                   |
|Paraview surface                   |surface.vtu                        |
+-----------------------------------------------------------------------+
+--------------------------------------------------------------------------------------------------------------------+
|  Inner_Iter|    rms[Rho]|   rms[RhoU]|   rms[RhoV]|   rms[RhoE]|          CD|          CL|         CMz|   LinSolRes|
+--------------------------------------------------------------------------------------------------------------------+
|        4125|   -8.254895|   -7.621416|   -8.106062|   -7.862214|    0.299601|    1.411010|    0.747232|   -0.298550|
|        4150|   -8.259332|   -7.649541|   -8.114346|   -7.862672|    0.299256|    1.411537|    0.747211|   -0.278780|
|        4175|   -8.334500|   -7.693207|   -8.113125|   -7.934625|    0.298907|    1.411785|    0.747097|   -0.361196|
|        4200|   -8.382396|   -7.723693|   -8.100130|   -7.976186|    0.298717|    1.412272|    0.747216|   -0.365748|
+-----------------------------------------------------------------------+
|        File Writing Summary       |              Filename             |
+-----------------------------------------------------------------------+
|SU2 binary restart                 |restart.dat                        |
|Paraview                           |vol_solution.vtu                   |
|Paraview surface                   |surface.vtu                        |
+-----------------------------------------------------------------------+
+--------------------------------------------------------------------------------------------------------------------+
|  Inner_Iter|    rms[Rho]|   rms[RhoU]|   rms[RhoV]|   rms[RhoE]|          CD|          CL|         CMz|   LinSolRes|
+--------------------------------------------------------------------------------------------------------------------+
|        4225|   -8.365490|   -7.733918|   -8.131444|   -7.961409|    0.298388|    1.412565|    0.747141|   -0.308040|
|        4250|   -8.453771|   -7.776551|   -8.141894|   -8.045409|    0.298015|    1.412546|    0.746882|   -0.378593|
|        4275|   -8.477845|   -7.792213|   -8.192421|   -8.067728|    0.297737|    1.412843|    0.746851|   -0.356260|
|        4300|   -8.472280|   -7.794975|   -8.223433|   -8.072376|    0.297402|    1.413124|    0.746744|   -0.339230|
+-----------------------------------------------------------------------+
|        File Writing Summary       |              Filename             |
+-----------------------------------------------------------------------+
|SU2 binary restart                 |restart.dat                        |
|Paraview                           |vol_solution.vtu                   |
|Paraview surface                   |surface.vtu                        |
+-----------------------------------------------------------------------+
+--------------------------------------------------------------------------------------------------------------------+
|  Inner_Iter|    rms[Rho]|   rms[RhoU]|   rms[RhoV]|   rms[RhoE]|          CD|          CL|         CMz|   LinSolRes|
+--------------------------------------------------------------------------------------------------------------------+
|        4325|   -8.474497|   -7.781182|   -8.215416|   -8.080083|    0.297104|    1.413438|    0.746694|   -0.409218|
|        4350|   -8.375012|   -7.723564|   -8.151457|   -7.980219|    0.296898|    1.414085|    0.746861|   -0.326806|
|        4375|   -8.338820|   -7.708819|   -8.093085|   -7.941610|    0.296549|    1.414454|    0.746753|   -0.322578|
|        4400|   -8.416441|   -7.743093|   -8.135369|   -8.022859|    0.296151|    1.414682|    0.746541|   -0.320716|
+-----------------------------------------------------------------------+
|        File Writing Summary       |              Filename             |
+-----------------------------------------------------------------------+
|SU2 binary restart                 |restart.dat                        |
|Paraview                           |vol_solution.vtu                   |
|Paraview surface                   |surface.vtu                        |
+-----------------------------------------------------------------------+
+--------------------------------------------------------------------------------------------------------------------+
|  Inner_Iter|    rms[Rho]|   rms[RhoU]|   rms[RhoV]|   rms[RhoE]|          CD|          CL|         CMz|   LinSolRes|
+--------------------------------------------------------------------------------------------------------------------+
|        4425|   -8.424417|   -7.735113|   -8.140999|   -8.022622|    0.295797|    1.415137|    0.746469|   -0.369944|
|        4450|   -8.412352|   -7.730924|   -8.158444|   -8.023074|    0.295446|    1.415652|    0.746416|   -0.372134|
|        4475|   -8.335261|   -7.674293|   -8.101102|   -7.946698|    0.295173|    1.416369|    0.746531|   -0.360865|
|        4500|   -8.263732|   -7.621770|   -8.015505|   -7.873336|    0.294930|    1.417291|    0.746743|   -0.326340|
+-----------------------------------------------------------------------+
|        File Writing Summary       |              Filename             |
+-----------------------------------------------------------------------+
|SU2 binary restart                 |restart.dat                        |
|Paraview                           |vol_solution.vtu                   |
|Paraview surface                   |surface.vtu                        |
+-----------------------------------------------------------------------+
+--------------------------------------------------------------------------------------------------------------------+
|  Inner_Iter|    rms[Rho]|   rms[RhoU]|   rms[RhoV]|   rms[RhoE]|          CD|          CL|         CMz|   LinSolRes|
+--------------------------------------------------------------------------------------------------------------------+
|        4525|   -8.226151|   -7.631551|   -8.003280|   -7.834853|    0.294577|    1.417992|    0.746746|   -0.350669|
|        4550|   -8.317954|   -7.656534|   -8.101517|   -7.929073|    0.294243|    1.418706|    0.746762|   -0.332359|
|        4575|   -8.342135|   -7.667328|   -8.152329|   -7.948693|    0.293862|    1.419457|    0.746772|   -0.348600|
|        4600|   -8.338933|   -7.664546|   -8.159249|   -7.947426|    0.293483|    1.420113|    0.746725|   -0.348042|
+-----------------------------------------------------------------------+
|        File Writing Summary       |              Filename             |
+-----------------------------------------------------------------------+
|SU2 binary restart                 |restart.dat                        |
|Paraview                           |vol_solution.vtu                   |
|Paraview surface                   |surface.vtu                        |
+-----------------------------------------------------------------------+
+--------------------------------------------------------------------------------------------------------------------+
|  Inner_Iter|    rms[Rho]|   rms[RhoU]|   rms[RhoV]|   rms[RhoE]|          CD|          CL|         CMz|   LinSolRes|
+--------------------------------------------------------------------------------------------------------------------+
|        4625|   -8.277674|   -7.646901|   -8.110648|   -7.884555|    0.293133|    1.420886|    0.746751|   -0.337542|
|        4650|   -8.318157|   -7.633946|   -8.103185|   -7.929174|    0.292787|    1.421753|    0.746838|   -0.354384|
|        4675|   -8.254404|   -7.601513|   -8.055014|   -7.864557|    0.292473|    1.422680|    0.746939|   -0.319352|
|        4700|   -8.240778|   -7.602274|   -8.022694|   -7.852122|    0.292094|    1.423637|    0.746980|   -0.334173|
+-----------------------------------------------------------------------+
|        File Writing Summary       |              Filename             |
+-----------------------------------------------------------------------+
|SU2 binary restart                 |restart.dat                        |
|Paraview                           |vol_solution.vtu                   |
|Paraview surface                   |surface.vtu                        |
+-----------------------------------------------------------------------+
+--------------------------------------------------------------------------------------------------------------------+
|  Inner_Iter|    rms[Rho]|   rms[RhoU]|   rms[RhoV]|   rms[RhoE]|          CD|          CL|         CMz|   LinSolRes|
+--------------------------------------------------------------------------------------------------------------------+
|        4725|   -8.284546|   -7.607250|   -8.044248|   -7.903243|    0.291735|    1.424693|    0.747134|   -0.402309|
|        4750|   -8.188990|   -7.547174|   -7.971875|   -7.803006|    0.291579|    1.426237|    0.747670|   -0.337475|
|        4775|   -8.114350|   -7.502868|   -7.857985|   -7.726402|    0.291294|    1.427619|    0.748005|   -0.307249|
|        4800|   -8.161596|   -7.544216|   -7.886782|   -7.777031|    0.290889|    1.428541|    0.748048|   -0.334278|
+-----------------------------------------------------------------------+
|        File Writing Summary       |              Filename             |
+-----------------------------------------------------------------------+
|SU2 binary restart                 |restart.dat                        |
|Paraview                           |vol_solution.vtu                   |
|Paraview surface                   |surface.vtu                        |
+-----------------------------------------------------------------------+
+--------------------------------------------------------------------------------------------------------------------+
|  Inner_Iter|    rms[Rho]|   rms[RhoU]|   rms[RhoV]|   rms[RhoE]|          CD|          CL|         CMz|   LinSolRes|
+--------------------------------------------------------------------------------------------------------------------+
|        4825|   -8.251272|   -7.580550|   -8.025650|   -7.857224|    0.290548|    1.429513|    0.748178|   -0.345862|
|        4850|   -8.276398|   -7.615005|   -8.082978|   -7.880633|    0.290158|    1.430363|    0.748230|   -0.343724|
|        4875|   -8.255317|   -7.631805|   -8.112296|   -7.859949|    0.289758|    1.431019|    0.748180|   -0.345855|
|        4900|   -8.303927|   -7.640060|   -8.123023|   -7.907281|    0.289369|    1.431715|    0.748171|   -0.344217|
+-----------------------------------------------------------------------+
|        File Writing Summary       |              Filename             |
+-----------------------------------------------------------------------+
|SU2 binary restart                 |restart.dat                        |
|Paraview                           |vol_solution.vtu                   |
|Paraview surface                   |surface.vtu                        |
+-----------------------------------------------------------------------+
+--------------------------------------------------------------------------------------------------------------------+
|  Inner_Iter|    rms[Rho]|   rms[RhoU]|   rms[RhoV]|   rms[RhoE]|          CD|          CL|         CMz|   LinSolRes|
+--------------------------------------------------------------------------------------------------------------------+
|        4925|   -8.317999|   -7.639955|   -8.131474|   -7.922408|    0.288983|    1.432430|    0.748176|   -0.352783|
|        4950|   -8.291053|   -7.617499|   -8.092769|   -7.898700|    0.288663|    1.433332|    0.748314|   -0.333591|
|        4975|   -8.239472|   -7.598344|   -8.035659|   -7.847489|    0.288314|    1.434221|    0.748397|   -0.318498|
[...]
|  Inner_Iter|    rms[Rho]|   rms[RhoU]|   rms[RhoV]|   rms[RhoE]|          CD|          CL|         CMz|   LinSolRes|
+--------------------------------------------------------------------------------------------------------------------+
|       48625|   -7.375177|   -6.701628|   -7.294847|   -7.022495|    0.161728|    2.491724|    0.995601|   -0.865401|
|       48650|   -7.349793|   -6.673315|   -7.270134|   -7.000035|    0.166660|    2.490249|    0.994523|   -0.815671|
|       48675|   -7.315271|   -6.646565|   -7.242500|   -6.963208|    0.172077|    2.490187|    0.994332|   -0.854820|
|       48700|   -7.291176|   -6.620179|   -7.203110|   -6.942087|    0.177681|    2.491307|    0.994705|   -0.788890|
+-----------------------------------------------------------------------+
|        File Writing Summary       |              Filename             |
+-----------------------------------------------------------------------+
|SU2 binary restart                 |restart.dat                        |
|Paraview                           |vol_solution.vtu                   |
|Paraview surface                   |surface.vtu                        |
+-----------------------------------------------------------------------+
+--------------------------------------------------------------------------------------------------------------------+
|  Inner_Iter|    rms[Rho]|   rms[RhoU]|   rms[RhoV]|   rms[RhoE]|          CD|          CL|         CMz|   LinSolRes|
+--------------------------------------------------------------------------------------------------------------------+
|       48725|   -7.263648|   -6.592890|   -7.168213|   -6.916008|    0.183755|    2.493994|    0.996069|   -0.705261|
|       48750|   -7.233516|   -6.566517|   -7.123357|   -6.887118|    0.190225|    2.498858|    0.998660|   -0.726146|
|       48775|   -7.202754|   -6.540271|   -7.077452|   -6.857758|    0.197063|    2.505633|    1.002416|   -0.784548|
|       48800|   -7.165185|   -6.516205|   -7.030811|   -6.820024|    0.204421|    2.514791|    1.007746|   -0.779184|
+-----------------------------------------------------------------------+
|        File Writing Summary       |              Filename             |
+-----------------------------------------------------------------------+
|SU2 binary restart                 |restart.dat                        |
|Paraview                           |vol_solution.vtu                   |
|Paraview surface                   |surface.vtu                        |
+-----------------------------------------------------------------------+
+--------------------------------------------------------------------------------------------------------------------+
|  Inner_Iter|    rms[Rho]|   rms[RhoU]|   rms[RhoV]|   rms[RhoE]|          CD|          CL|         CMz|   LinSolRes|
+--------------------------------------------------------------------------------------------------------------------+
|       48825|   -7.133078|   -6.491226|   -6.983615|   -6.787911|    0.212250|    2.526757|    1.014838|   -0.775679|
|       48850|   -7.088128|   -6.467268|   -6.935653|   -6.739975|    0.220535|    2.541475|    1.023774|   -0.760757|
|       48875|   -7.081782|   -6.443180|   -6.885216|   -6.741505|    0.229549|    2.559463|    1.035070|   -0.787701|
|       48900|   -7.052888|   -6.419380|   -6.831133|   -6.713613|    0.239264|    2.581007|    1.048969|   -0.747110|
+-----------------------------------------------------------------------+
|        File Writing Summary       |              Filename             |
+-----------------------------------------------------------------------+
|SU2 binary restart                 |restart.dat                        |
|Paraview                           |vol_solution.vtu                   |
|Paraview surface                   |surface.vtu                        |
+-----------------------------------------------------------------------+
+--------------------------------------------------------------------------------------------------------------------+
|  Inner_Iter|    rms[Rho]|   rms[RhoU]|   rms[RhoV]|   rms[RhoE]|          CD|          CL|         CMz|   LinSolRes|
+--------------------------------------------------------------------------------------------------------------------+
|       48925|   -7.028614|   -6.397123|   -6.780983|   -6.691778|    0.249605|    2.605900|    1.065268|   -0.775333|
|       48950|   -6.999519|   -6.374603|   -6.737226|   -6.663234|    0.260696|    2.634394|    1.084445|   -0.750684|
|       48975|   -6.964659|   -6.353557|   -6.695181|   -6.627601|    0.272722|    2.666474|    1.106712|   -0.789786|
|       49000|   -6.961393|   -6.333177|   -6.651726|   -6.634758|    0.285970|    2.702456|    1.132602|   -0.804860|
+-----------------------------------------------------------------------+
|        File Writing Summary       |              Filename             |
+-----------------------------------------------------------------------+
|SU2 binary restart                 |restart.dat                        |
|Paraview                           |vol_solution.vtu                   |
|Paraview surface                   |surface.vtu                        |
+-----------------------------------------------------------------------+
+--------------------------------------------------------------------------------------------------------------------+
|  Inner_Iter|    rms[Rho]|   rms[RhoU]|   rms[RhoV]|   rms[RhoE]|          CD|          CL|         CMz|   LinSolRes|
+--------------------------------------------------------------------------------------------------------------------+
|       49025|   -6.947944|   -6.312030|   -6.608747|   -6.627367|    0.300000|    2.741188|    1.161434|   -0.808249|
|       49050|   -6.930291|   -6.290163|   -6.573510|   -6.612573|    0.314942|    2.781662|    1.193332|   -0.847833|
|       49075|   -6.919579|   -6.265245|   -6.540719|   -6.608265|    0.330769|    2.822969|    1.228304|   -0.840229|
|       49100|   -6.904927|   -6.234640|   -6.505648|   -6.598477|    0.347451|    2.862976|    1.265859|   -0.837895|
+-----------------------------------------------------------------------+
|        File Writing Summary       |              Filename             |
+-----------------------------------------------------------------------+
|SU2 binary restart                 |restart.dat                        |
|Paraview                           |vol_solution.vtu                   |
|Paraview surface                   |surface.vtu                        |
+-----------------------------------------------------------------------+
+--------------------------------------------------------------------------------------------------------------------+
|  Inner_Iter|    rms[Rho]|   rms[RhoU]|   rms[RhoV]|   rms[RhoE]|          CD|          CL|         CMz|   LinSolRes|
+--------------------------------------------------------------------------------------------------------------------+
|       49125|   -6.871907|   -6.193534|   -6.467910|   -6.562742|    0.364743|    2.898569|    1.305090|   -0.826004|
|       49150|   -6.844854|   -6.140492|   -6.427048|   -6.538508|    0.383105|    2.925845|    1.345444|   -0.806617|
|       49175|   -6.767629|   -6.060397|   -6.368761|   -6.442279|    0.405015|    2.938681|    1.388133|   -0.665194|
|       49200|   -6.667434|   -5.938237|   -6.266907|   -6.327247|    0.430921|    2.912437|    1.422518|   -0.642426|
+-----------------------------------------------------------------------+
|        File Writing Summary       |              Filename             |
+-----------------------------------------------------------------------+
|SU2 binary restart                 |restart.dat                        |
|Paraview                           |vol_solution.vtu                   |
|Paraview surface                   |surface.vtu                        |
+-----------------------------------------------------------------------+
+--------------------------------------------------------------------------------------------------------------------+
|  Inner_Iter|    rms[Rho]|   rms[RhoU]|   rms[RhoV]|   rms[RhoE]|          CD|          CL|         CMz|   LinSolRes|
+--------------------------------------------------------------------------------------------------------------------+
|       49225|   -6.509985|   -5.774188|   -6.082985|   -6.160419|    0.455053|    2.800061|    1.416824|   -0.635165|
|       49250|   -6.302024|   -5.567475|   -5.837752|   -5.954100|    0.459925|    2.530901|    1.327187|   -0.681382|
|       49275|   -6.092433|   -5.359989|   -5.586079|   -5.740916|    0.425450|    2.066306|    1.124890|   -0.695384|
|       49300|   -5.937071|   -5.225594|   -5.398830|   -5.582509|    0.372635|    1.535555|    0.887306|   -0.623519|
+-----------------------------------------------------------------------+
|        File Writing Summary       |              Filename             |
+-----------------------------------------------------------------------+
|SU2 binary restart                 |restart.dat                        |
|Paraview                           |vol_solution.vtu                   |
|Paraview surface                   |surface.vtu                        |
+-----------------------------------------------------------------------+
+--------------------------------------------------------------------------------------------------------------------+
|  Inner_Iter|    rms[Rho]|   rms[RhoU]|   rms[RhoV]|   rms[RhoE]|          CD|          CL|         CMz|   LinSolRes|
+--------------------------------------------------------------------------------------------------------------------+
|       49325|   -5.916337|   -5.213612|   -5.287706|   -5.578125|    0.360532|    1.266677|    0.793986|   -0.786176|
|       49350|   -5.731445|   -4.966490|   -5.029196|   -5.335192|    0.403038|    1.277795|    0.854277|   -0.676034|
|       49375|   -5.487211|   -4.726624|   -4.816010|   -5.100355|    0.266270|    0.821309|    0.521279|   -0.619615|
|       49400|   -5.183005|   -4.423464|   -4.632739|   -4.779709|    0.160833|    0.267186|    0.213357|   -0.668603|
+-----------------------------------------------------------------------+
|        File Writing Summary       |              Filename             |
+-----------------------------------------------------------------------+
|SU2 binary restart                 |restart.dat                        |
|Paraview                           |vol_solution.vtu                   |
|Paraview surface                   |surface.vtu                        |
+-----------------------------------------------------------------------+
+--------------------------------------------------------------------------------------------------------------------+
|  Inner_Iter|    rms[Rho]|   rms[RhoU]|   rms[RhoV]|   rms[RhoE]|          CD|          CL|         CMz|   LinSolRes|
+--------------------------------------------------------------------------------------------------------------------+
|       49425|   -5.204877|   -4.479089|   -4.629901|   -4.799623|    0.412689|    1.349236|    0.907185|   -0.684868|
|       49450|   -5.293804|   -4.606050|   -4.716102|   -4.895054|    0.161602|    0.513886|    0.279205|   -0.662987|
|       49475|   -5.299984|   -4.792292|   -4.876274|   -4.893467|    0.337472|    1.271113|    0.784673|   -0.739216|
|       49500|   -5.893423|   -5.284623|   -5.365591|   -5.489076|    0.258949|    0.974546|    0.531288|   -0.646695|
+-----------------------------------------------------------------------+
|        File Writing Summary       |              Filename             |
+-----------------------------------------------------------------------+
|SU2 binary restart                 |restart.dat                        |
|Paraview                           |vol_solution.vtu                   |
|Paraview surface                   |surface.vtu                        |
+-----------------------------------------------------------------------+
+--------------------------------------------------------------------------------------------------------------------+
|  Inner_Iter|    rms[Rho]|   rms[RhoU]|   rms[RhoV]|   rms[RhoE]|          CD|          CL|         CMz|   LinSolRes|
+--------------------------------------------------------------------------------------------------------------------+
|       49525|   -6.141347|   -5.334688|   -5.546261|   -5.777247|    0.290033|    1.294866|    0.711599|   -0.631898|
|       49550|   -5.967127|   -5.235158|   -5.414993|   -5.580687|    0.276210|    1.204680|    0.639512|   -0.544024|
|       49575|   -6.005745|   -5.263126|   -5.418837|   -5.621882|    0.285157|    1.323681|    0.695167|   -0.621631|
|       49600|   -6.140810|   -5.469692|   -5.580338|   -5.719560|    0.283765|    1.374349|    0.711405|   -0.697454|
+-----------------------------------------------------------------------+
|        File Writing Summary       |              Filename             |
+-----------------------------------------------------------------------+
|SU2 binary restart                 |restart.dat                        |
|Paraview                           |vol_solution.vtu                   |
|Paraview surface                   |surface.vtu                        |
+-----------------------------------------------------------------------+
+--------------------------------------------------------------------------------------------------------------------+
|  Inner_Iter|    rms[Rho]|   rms[RhoU]|   rms[RhoV]|   rms[RhoE]|          CD|          CL|         CMz|   LinSolRes|
+--------------------------------------------------------------------------------------------------------------------+
|       49625|   -6.633437|   -5.839797|   -6.032085|   -6.248659|    0.291257|    1.438154|    0.731529|   -0.712341|
|       49650|   -6.830529|   -6.131889|   -6.389824|   -6.443043|    0.284969|    1.465475|    0.745381|   -0.580354|
|       49675|   -6.973606|   -6.362870|   -6.534241|   -6.617331|    0.296051|    1.513188|    0.762887|   -0.705584|
|       49700|   -6.977614|   -6.332991|   -6.587648|   -6.612234|    0.296530|    1.532778|    0.775721|   -0.608585|
+-----------------------------------------------------------------------+
|        File Writing Summary       |              Filename             |
+-----------------------------------------------------------------------+
|SU2 binary restart                 |restart.dat                        |
|Paraview                           |vol_solution.vtu                   |
|Paraview surface                   |surface.vtu                        |
+-----------------------------------------------------------------------+
+--------------------------------------------------------------------------------------------------------------------+
|  Inner_Iter|    rms[Rho]|   rms[RhoU]|   rms[RhoV]|   rms[RhoE]|          CD|          CL|         CMz|   LinSolRes|
+--------------------------------------------------------------------------------------------------------------------+
|       49725|   -7.045822|   -6.392045|   -6.651758|   -6.696120|    0.304748|    1.573484|    0.799250|   -0.715855|
|       49750|   -7.110654|   -6.436712|   -6.731501|   -6.782143|    0.307172|    1.578248|    0.800254|   -0.675297|
|       49775|   -7.114511|   -6.464988|   -6.778981|   -6.796751|    0.314834|    1.612298|    0.827588|   -0.632693|
|       49800|   -7.140234|   -6.458291|   -6.759743|   -6.810165|    0.318827|    1.610025|    0.830264|   -0.562891|
+-----------------------------------------------------------------------+
|        File Writing Summary       |              Filename             |
+-----------------------------------------------------------------------+
|SU2 binary restart                 |restart.dat                        |
|Paraview                           |vol_solution.vtu                   |
|Paraview surface                   |surface.vtu                        |
+-----------------------------------------------------------------------+
+--------------------------------------------------------------------------------------------------------------------+
|  Inner_Iter|    rms[Rho]|   rms[RhoU]|   rms[RhoV]|   rms[RhoE]|          CD|          CL|         CMz|   LinSolRes|
+--------------------------------------------------------------------------------------------------------------------+
|       49825|   -7.133625|   -6.372268|   -6.661957|   -6.798989|    0.322854|    1.601500|    0.835345|   -0.612607|
|       49850|   -7.034861|   -6.261900|   -6.554715|   -6.700498|    0.324126|    1.582473|    0.833464|   -0.795317|
|       49875|   -6.885645|   -6.060548|   -6.360554|   -6.541576|    0.314610|    1.512182|    0.796706|   -0.677085|
|       49900|   -6.748574|   -6.005257|   -6.181707|   -6.384649|    0.313940|    1.467391|    0.784272|   -0.587331|
+-----------------------------------------------------------------------+
|        File Writing Summary       |              Filename             |
+-----------------------------------------------------------------------+
|SU2 binary restart                 |restart.dat                        |
|Paraview                           |vol_solution.vtu                   |
|Paraview surface                   |surface.vtu                        |
+-----------------------------------------------------------------------+
+--------------------------------------------------------------------------------------------------------------------+
|  Inner_Iter|    rms[Rho]|   rms[RhoU]|   rms[RhoV]|   rms[RhoE]|          CD|          CL|         CMz|   LinSolRes|
+--------------------------------------------------------------------------------------------------------------------+
|       49925|   -6.904250|   -6.092959|   -6.341774|   -6.587494|    0.308092|    1.407513|    0.758963|   -0.751919|
|       49950|   -6.927219|   -6.117085|   -6.435796|   -6.544712|    0.304442|    1.351428|    0.735620|   -0.607553|
|       49975|   -6.893748|   -6.131011|   -6.377664|   -6.533930|    0.308497|    1.338981|    0.739581|   -0.627367|
|       49999|   -6.938109|   -6.114228|   -6.356904|   -6.513786|    0.299854|    1.293238|    0.712131|   -0.665599|

----------------------------- Solver Exit -------------------------------

Maximum number of iterations reached (ITER = 50000) before convergence.
+-----------------------------------------------------------------------+
|      Convergence Field     |     Value    |   Criterion  |  Converged |
+-----------------------------------------------------------------------+
|                  Cauchy[CL]|    0.00177609|       < 5e-07|          No|
+-----------------------------------------------------------------------+
-------------------------------------------------------------------------
+-----------------------------------------------------------------------+
|        File Writing Summary       |              Filename             |
+-----------------------------------------------------------------------+
|SU2 binary restart                 |restart.dat                        |
|Paraview                           |vol_solution.vtu                   |
|Paraview surface                   |surface.vtu                        |
+-----------------------------------------------------------------------+

------------------------- Solver Postprocessing -------------------------
Deleted CNumerics container.
Deleted CIntegration container.
Deleted CSolver container.
Deleted CIteration container.
Deleted CInterface container.
Deleted CGeometry container.
Deleted CFreeFormDefBox class.
Deleted CSurfaceMovement class.
Deleted CVolumetricMovement class.
Deleted CConfig container.
Deleted nInst container.
Deleted COutput class.
-------------------------------------------------------------------------

------------------------- Exit Success (SU2_CFD) ------------------------

