WARNING: The current SST-1994m model is inconsistent with literature. We recommend using the SST-2003m model.
In SU2 v8 the 2003m model will become default, and the inconsistency will be fixed.

-------------------------------------------------------------------------
|    ___ _   _ ___                                                      |
|   / __| | | |_  )   Release 7.4.0 "Blackbird"                         |
|   \__ \ |_| |/ /                                                      |
|   |___/\___//___|   Suite (Computational Fluid Dynamics Code)         |
|                                                                       |
-------------------------------------------------------------------------
| SU2 Project Website: https://su2code.github.io                        |
|                                                                       |
| The SU2 Project is maintained by the SU2 Foundation                   |
| (http://su2foundation.org)                                            |
-------------------------------------------------------------------------
| Copyright 2012-2022, SU2 Contributors                                 |
|                                                                       |
| SU2 is free software; you can redistribute it and/or                  |
| modify it under the terms of the GNU Lesser General Public            |
| License as published by the Free Software Foundation; either          |
| version 2.1 of the License, or (at your option) any later version.    |
|                                                                       |
| SU2 is distributed in the hope that it will be useful,                |
| but WITHOUT ANY WARRANTY; without even the implied warranty of        |
| MERCHANTABILITY or FITNESS FOR A PARTICULAR PURPOSE. See the GNU      |
| Lesser General Public License for more details.                       |
|                                                                       |
| You should have received a copy of the GNU Lesser General Public      |
| License along with SU2. If not, see <http://www.gnu.org/licenses/>.   |
-------------------------------------------------------------------------
WARNING: The current SST-1994m model is inconsistent with literature. We recommend using the SST-2003m model.
In SU2 v8 the 2003m model will become default, and the inconsistency will be fixed.

Parsing config file for zone 0
WARNING: The current SST-1994m model is inconsistent with literature. We recommend using the SST-2003m model.
In SU2 v8 the 2003m model will become default, and the inconsistency will be fixed.

----------------- Physical Case Definition ( Zone 0 ) -------------------
Compressible RANS equations.
Turbulence model: Menter's k-omega SST-1994m with no production modification.
Hybrid RANS/LES: No Hybrid RANS/LES
Mach number: 0.2.
Angle of attack (AoA): 10 deg, and angle of sideslip (AoS): 0 deg.
Reynolds number: 1.22082e+07. Reference length 2.62.
Reading and writing binary SU2 native restart files.
Read flow solution from: solution_flow.
Non-Dimensional simulation (V=Mach, Rho=1.0, T=1.0 at the farfield).
The reference area is 2.62 m^2.
The semi-span will be computed using the max y(3D) value.
The reference length is 2.62 m.
Reference origin for moment evaluation is (0, 0, 0).
Surface(s) where the force coefficients are evaluated: wall.

Surface(s) plotted in the output file: wall.
Input mesh file name: su2meshEx.su2

--------------- Space Numerical Integration ( Zone 0 ) ------------------
Roe (with entropy fix = 1e-05) solver for the flow inviscid terms.
Standard Roe without low-dissipation function.
Second order integration in space, with slope limiter.
Van Albada slope-limiting method implemented by edges.
Scalar upwind solver for the turbulence model.
First order integration in space.
Average of gradients with correction (viscous flow terms).
Average of gradients with correction (viscous turbulence terms).
Gradient for upwind reconstruction: Green-Gauss.
Gradient for viscous and source terms: Green-Gauss.

--------------- Time Numerical Integration  ( Zone 0 ) ------------------
Local time stepping (steady state simulation).
Euler implicit method for the flow equations.
FGMRES is used for solving the linear system.
Using a ILU(0) preconditioning.
Convergence criteria of the linear solver: 0.2.
Max number of linear iterations: 4.
CFL adaptation. Factor down: 0.1, factor up: 1.2,
                lower limit: 25, upper limit: 1000,
                acceptable linear residual: 0.001.
Courant-Friedrichs-Lewy number:       25
Euler implicit time integration for the turbulence model.

------------------ Convergence Criteria  ( Zone 0 ) ---------------------
Maximum number of solver subiterations: 25000.
Begin convergence monitoring at iteration 10.
Residual minimum value: 1e-11.5.
Cauchy series min. value: 5e-07.
Number of Cauchy elements: 500.
Begin windowed time average at iteration 0.

-------------------- Output Information ( Zone 0 ) ----------------------
File writing frequency: 
+------------------------------------+
|                     File| Frequency|
+------------------------------------+
|                  RESTART|       100|
|                 PARAVIEW|       100|
|         SURFACE_PARAVIEW|       100|
+------------------------------------+
Writing the convergence history file every 1 inner iterations.
Writing the screen convergence history every 25 inner iterations.
The tabular file format is CSV (.csv).
Convergence history file name: history.
Forces breakdown file name: forces_breakdown.dat.
Surface file name: surface.
Volume file name: vol_solution.
Restart file name: restart.dat.

------------- Config File Boundary Information ( Zone 0 ) ---------------
+-----------------------------------------------------------------------+
|                        Marker Type|                        Marker Name|
+-----------------------------------------------------------------------+
|                          Far-field|                          far-field|
+-----------------------------------------------------------------------+
|                     Heat flux wall|                               wall|
+-----------------------------------------------------------------------+

-------------------- Output Preprocessing ( Zone 0 ) --------------------

WARNING: SURFACE_PRESSURE_DROP can only be computed for at least 2 surfaces (outlet, inlet, ...)

  Info: Ignoring the following screen output fields:
  RMS_NU_TILDE
Screen output fields: INNER_ITER, RMS_DENSITY, RMS_MOMENTUM-X, RMS_MOMENTUM-Y, RMS_ENERGY, DRAG, LIFT, MOMENT_Z, LINSOL_RESIDUAL
History output group(s): ITER, RMS_RES, AERO_COEFF
Convergence field(s): LIFT
Warning: No (valid) fields chosen for time convergence monitoring. Time convergence monitoring inactive.
Volume output fields: COORDINATES, SOLUTION, PRIMITIVE

------------------- Geometry Preprocessing ( Zone 0 ) -------------------
Two dimensional problem.
82001 grid points before partitioning.
110096 volume elements before partitioning.
2 surface markers.
76 boundary elements in index 0 (Marker = far-field).
723 boundary elements in index 1 (Marker = wall).
Executing the partitioning functions.
Building the graph adjacency structure.
Calling ParMETIS... graph partitioning complete (1791 edge cuts).
Distributing ParMETIS coloring.
Rebalancing vertices.
Rebalancing volume element connectivity.
Rebalancing markers and surface elements.
84501 vertices including ghost points. 
111887 interior elements including halo cells. 
58082 triangles.
53805 quadrilaterals.
Establishing MPI communication patterns.
Setting point connectivity.
Renumbering points (Reverse Cuthill McKee Ordering).
Recomputing point connectivity.
Setting element connectivity.
Checking the numerical grid orientation.
All volume elements are correctly orientend.
All surface elements are correctly orientend.
Identifying edges and vertices.
Setting the control volume structure.
Area of the computational grid: 98853.7.
Searching for the closest normal neighbors to the surfaces.
Storing a mapping from global to local point index.
Compute the surface curvature.
Max K: 1170.36. Mean K: 8.52212. Standard deviation K: 78.5888.
Checking for periodicity.
Computing mesh quality statistics for the dual control volumes.
+--------------------------------------------------------------+
|           Mesh Quality Metric|        Minimum|        Maximum|
+--------------------------------------------------------------+
|    Orthogonality Angle (deg.)|        60.5564|             90|
|     CV Face Area Aspect Ratio|        1.00119|        10426.8|
|           CV Sub-Volume Ratio|              1|        5.72924|
+--------------------------------------------------------------+
Finding max control volume width.
Communicating number of neighbors.
Wetted area = 6.32542 m.
Area projection in the x-plane = 0.630114 m, y-plane = 2.96262 m.
Max. coordinate in the x-direction = 2.9339 m, y-direction = 0.165086 m.
Min. coordinate in the x-direction = 0 m, y-direction = -0.309055 m.
Computing wall distances.

-------------------- Solver Preprocessing ( Zone 0 ) --------------------
Viscous flow: Computing pressure using the ideal gas law
based on the free-stream temperature and a density computed
from the Reynolds number.
Force coefficients computed using free-stream values.

-- Models:
+------------------------------------------------------------------------------+
|          Viscosity Model|        Conductivity Model|              Fluid Model|
+------------------------------------------------------------------------------+
|               SUTHERLAND|          CONSTANT_PRANDTL|             STANDARD_AIR|
+------------------------------------------------------------------------------+
-- Fluid properties:
+------------------------------------------------------------------------------+
|                  Name|    Dim. value|    Ref. value|      Unit|Non-dim. value|
+------------------------------------------------------------------------------+
|        Ref. Viscosity|     1.716e-05|       416.883|   N.s/m^2|   4.11626e-08|
|      Sutherland Temp.|        273.15|        288.16|         K|      0.947911|
|     Sutherland Const.|         110.4|        288.16|         K|       0.38312|
+------------------------------------------------------------------------------+
|        Prandtl (Lam.)|             -|             -|         -|          0.72|
|       Prandtl (Turb.)|             -|             -|         -|           0.9|
+------------------------------------------------------------------------------+
|          Gas Constant|       287.058|       401.881|  N.m/kg.K|      0.714286|
|      Spec. Heat Ratio|             -|             -|         -|           1.4|
+------------------------------------------------------------------------------+
-- Initial and free-stream conditions:
+------------------------------------------------------------------------------+
|                  Name|    Dim. value|    Ref. value|      Unit|Non-dim. value|
+------------------------------------------------------------------------------+
|       Static Pressure|        101333|        141867|        Pa|      0.714286|
|               Density|       1.22504|       1.22504|    kg/m^3|             1|
|           Temperature|        288.16|        288.16|         K|             1|
|          Total Energy|        209130|        115806|   m^2/s^2|       1.80586|
|            Velocity-X|       67.0266|       340.303|       m/s|      0.196962|
|            Velocity-Y|       11.8186|       340.303|       m/s|     0.0347296|
|    Velocity Magnitude|       68.0606|       340.303|       m/s|           0.2|
+------------------------------------------------------------------------------+
|             Viscosity|   1.78935e-05|       416.883|   N.s/m^2|    4.2922e-08|
|          Conductivity|             -|        167537|   W/m^2.K|             -|
|     Turb. Kin. Energy|       17.3709|        115806|   m^2/s^2|       0.00015|
|     Spec. Dissipation|        118926|       340.303|       1/s|       349.471|
+------------------------------------------------------------------------------+
|           Mach Number|             -|             -|         -|           0.2|
|       Reynolds Number|             -|             -|         -|   1.22082e+07|
+------------------------------------------------------------------------------+
Initialize Jacobian structure (Navier-Stokes). MG level: 0.
Initialize Jacobian structure (SST model).

------------------- Numerics Preprocessing ( Zone 0 ) -------------------

----------------- Integration Preprocessing ( Zone 0 ) ------------------

------------------- Iteration Preprocessing ( Zone 0 ) ------------------
Euler/Navier-Stokes/RANS fluid iteration.

------------------------------ Begin Solver -----------------------------

Simulation Run using the Single-zone Driver
WARNING: SU2 was not compiled for an AVX-capable architecture.
+--------------------------------------------------------------------------------------------------------------------+
|  Inner_Iter|    rms[Rho]|   rms[RhoU]|   rms[RhoV]|   rms[RhoE]|          CD|          CL|         CMz|   LinSolRes|
+--------------------------------------------------------------------------------------------------------------------+
|           0|   -3.211678|   -3.760913|   -3.203246|   -2.809789|    0.114738|    2.620201|    1.083632|   -0.989354|
|          25|   -5.871706|   -5.080541|   -5.197550|   -5.417567|    0.121861|    2.682897|    1.112610|   -0.700868|
|          50|   -6.527862|   -5.512178|   -5.909570|   -5.963448|    0.094118|    2.748560|    1.117570|   -0.675619|
|          75|   -6.915621|   -5.874284|   -6.304053|   -6.347323|    0.072289|    2.732900|    1.106884|   -0.715606|
|         100|   -7.106648|   -6.170987|   -6.697655|   -6.613604|    0.077346|    2.705688|    1.098935|   -0.695194|
+-----------------------------------------------------------------------+
|        File Writing Summary       |              Filename             |
+-----------------------------------------------------------------------+
|SU2 binary restart                 |restart.dat                        |
|Paraview                           |vol_solution.vtu                   |
|Paraview surface                   |surface.vtu                        |
+-----------------------------------------------------------------------+
+--------------------------------------------------------------------------------------------------------------------+
|  Inner_Iter|    rms[Rho]|   rms[RhoU]|   rms[RhoV]|   rms[RhoE]|          CD|          CL|         CMz|   LinSolRes|
+--------------------------------------------------------------------------------------------------------------------+
|         125|   -7.256089|   -6.342345|   -6.966628|   -6.771586|    0.084341|    2.718699|    1.106178|   -0.626663|
|         150|   -7.353461|   -6.469028|   -7.156700|   -6.875225|    0.083087|    2.716491|    1.102600|   -0.718892|
|         175|   -7.509346|   -6.607225|   -7.344243|   -7.032116|    0.083677|    2.723075|    1.106762|   -0.619261|
|         200|   -7.545935|   -6.809840|   -7.385766|   -7.113959|    0.082178|    2.720426|    1.102835|   -0.612344|
+-----------------------------------------------------------------------+
|        File Writing Summary       |              Filename             |
+-----------------------------------------------------------------------+
|SU2 binary restart                 |restart.dat                        |
|Paraview                           |vol_solution.vtu                   |
|Paraview surface                   |surface.vtu                        |
+-----------------------------------------------------------------------+
+--------------------------------------------------------------------------------------------------------------------+
|  Inner_Iter|    rms[Rho]|   rms[RhoU]|   rms[RhoV]|   rms[RhoE]|          CD|          CL|         CMz|   LinSolRes|
+--------------------------------------------------------------------------------------------------------------------+
|         225|   -7.685789|   -7.048073|   -7.510459|   -7.275192|    0.082209|    2.717356|    1.102006|   -0.490549|
|         250|   -7.806155|   -7.133631|   -7.463691|   -7.383625|    0.082738|    2.718462|    1.101664|   -0.398689|
|         275|   -7.808324|   -7.170627|   -7.456248|   -7.422049|    0.081116|    2.710600|    1.096258|   -0.443265|
|         300|   -7.841577|   -7.195856|   -7.452266|   -7.463815|    0.081876|    2.708385|    1.095549|   -0.419370|
+-----------------------------------------------------------------------+
|        File Writing Summary       |              Filename             |
+-----------------------------------------------------------------------+
|SU2 binary restart                 |restart.dat                        |
|Paraview                           |vol_solution.vtu                   |
|Paraview surface                   |surface.vtu                        |
+-----------------------------------------------------------------------+
+--------------------------------------------------------------------------------------------------------------------+
|  Inner_Iter|    rms[Rho]|   rms[RhoU]|   rms[RhoV]|   rms[RhoE]|          CD|          CL|         CMz|   LinSolRes|
+--------------------------------------------------------------------------------------------------------------------+
|         325|   -7.862022|   -7.270124|   -7.479257|   -7.496977|    0.082025|    2.703460|    1.092732|   -0.425384|
|         350|   -7.995455|   -7.309888|   -7.648670|   -7.641783|    0.083425|    2.699555|    1.091289|   -0.445289|
|         375|   -8.006022|   -7.301179|   -7.719214|   -7.625424|    0.084328|    2.696639|    1.089961|   -0.482128|
|         400|   -8.001461|   -7.346118|   -7.738809|   -7.641591|    0.085206|    2.692405|    1.087636|   -0.466895|
+-----------------------------------------------------------------------+
|        File Writing Summary       |              Filename             |
+-----------------------------------------------------------------------+
|SU2 binary restart                 |restart.dat                        |
|Paraview                           |vol_solution.vtu                   |
|Paraview surface                   |surface.vtu                        |
+-----------------------------------------------------------------------+
+--------------------------------------------------------------------------------------------------------------------+
|  Inner_Iter|    rms[Rho]|   rms[RhoU]|   rms[RhoV]|   rms[RhoE]|          CD|          CL|         CMz|   LinSolRes|
+--------------------------------------------------------------------------------------------------------------------+
|         425|   -7.974113|   -7.319752|   -7.613266|   -7.623455|    0.086206|    2.688952|    1.085981|   -0.466796|
|         450|   -7.924088|   -7.292706|   -7.584500|   -7.566279|    0.087378|    2.685807|    1.084712|   -0.455182|
|         475|   -7.975655|   -7.295509|   -7.706997|   -7.626096|    0.088658|    2.682926|    1.083445|   -0.496019|
|         500|   -8.003113|   -7.286398|   -7.798026|   -7.638527|    0.089907|    2.679699|    1.082075|   -0.504174|
+-----------------------------------------------------------------------+
|        File Writing Summary       |              Filename             |
+-----------------------------------------------------------------------+
|SU2 binary restart                 |restart.dat                        |
|Paraview                           |vol_solution.vtu                   |
|Paraview surface                   |surface.vtu                        |
+-----------------------------------------------------------------------+
+--------------------------------------------------------------------------------------------------------------------+
|  Inner_Iter|    rms[Rho]|   rms[RhoU]|   rms[RhoV]|   rms[RhoE]|          CD|          CL|         CMz|   LinSolRes|
+--------------------------------------------------------------------------------------------------------------------+
|         525|   -8.006047|   -7.291060|   -7.813486|   -7.644821|    0.091269|    2.677377|    1.081036|   -0.527992|
|         550|   -7.980190|   -7.271677|   -7.776807|   -7.617980|    0.092552|    2.674243|    1.079610|   -0.525539|
|         575|   -7.960674|   -7.251493|   -7.737731|   -7.598191|    0.094016|    2.671791|    1.078439|   -0.534570|
|         600|   -7.945580|   -7.232726|   -7.734256|   -7.586247|    0.095394|    2.669082|    1.077224|   -0.539957|
+-----------------------------------------------------------------------+
|        File Writing Summary       |              Filename             |
+-----------------------------------------------------------------------+
|SU2 binary restart                 |restart.dat                        |
|Paraview                           |vol_solution.vtu                   |
|Paraview surface                   |surface.vtu                        |
+-----------------------------------------------------------------------+
+--------------------------------------------------------------------------------------------------------------------+
|  Inner_Iter|    rms[Rho]|   rms[RhoU]|   rms[RhoV]|   rms[RhoE]|          CD|          CL|         CMz|   LinSolRes|
+--------------------------------------------------------------------------------------------------------------------+
|         625|   -7.927986|   -7.210626|   -7.739019|   -7.568250|    0.096944|    2.666257|    1.075831|   -0.538616|
|         650|   -7.897998|   -7.188107|   -7.716249|   -7.538144|    0.098552|    2.663390|    1.074495|   -0.541487|
|         675|   -7.870662|   -7.163651|   -7.691727|   -7.512657|    0.100321|    2.660649|    1.073142|   -0.564637|
|         700|   -7.828090|   -7.135334|   -7.668196|   -7.469151|    0.102143|    2.657372|    1.071536|   -0.564512|
+-----------------------------------------------------------------------+
|        File Writing Summary       |              Filename             |
+-----------------------------------------------------------------------+
|SU2 binary restart                 |restart.dat                        |
|Paraview                           |vol_solution.vtu                   |
|Paraview surface                   |surface.vtu                        |
+-----------------------------------------------------------------------+
+--------------------------------------------------------------------------------------------------------------------+
|  Inner_Iter|    rms[Rho]|   rms[RhoU]|   rms[RhoV]|   rms[RhoE]|          CD|          CL|         CMz|   LinSolRes|
+--------------------------------------------------------------------------------------------------------------------+
|         725|   -7.803216|   -7.106736|   -7.635102|   -7.447817|    0.104235|    2.654443|    1.070049|   -0.573600|
|         750|   -7.766071|   -7.075211|   -7.606180|   -7.411800|    0.106382|    2.651085|    1.068333|   -0.578743|
|         775|   -7.724855|   -7.041500|   -7.575641|   -7.370259|    0.108821|    2.647645|    1.066515|   -0.589403|
|         800|   -7.683638|   -7.006308|   -7.540312|   -7.329754|    0.111435|    2.644036|    1.064600|   -0.599459|
+-----------------------------------------------------------------------+
|        File Writing Summary       |              Filename             |
+-----------------------------------------------------------------------+
|SU2 binary restart                 |restart.dat                        |
|Paraview                           |vol_solution.vtu                   |
|Paraview surface                   |surface.vtu                        |
+-----------------------------------------------------------------------+
+--------------------------------------------------------------------------------------------------------------------+
|  Inner_Iter|    rms[Rho]|   rms[RhoU]|   rms[RhoV]|   rms[RhoE]|          CD|          CL|         CMz|   LinSolRes|
+--------------------------------------------------------------------------------------------------------------------+
|         825|   -7.640071|   -6.969188|   -7.504888|   -7.287171|    0.114336|    2.640301|    1.062565|   -0.605424|
|         850|   -7.597237|   -6.931003|   -7.471885|   -7.244940|    0.117502|    2.636310|    1.060363|   -0.604658|
|         875|   -7.536448|   -6.891611|   -7.431953|   -7.181825|    0.120993|    2.632345|    1.058108|   -0.737274|
|         900|   -7.502924|   -6.851777|   -7.397128|   -7.152625|    0.124773|    2.628377|    1.055683|   -0.720022|
+-----------------------------------------------------------------------+
|        File Writing Summary       |              Filename             |
+-----------------------------------------------------------------------+
|SU2 binary restart                 |restart.dat                        |
|Paraview                           |vol_solution.vtu                   |
|Paraview surface                   |surface.vtu                        |
+-----------------------------------------------------------------------+
+--------------------------------------------------------------------------------------------------------------------+
|  Inner_Iter|    rms[Rho]|   rms[RhoU]|   rms[RhoV]|   rms[RhoE]|          CD|          CL|         CMz|   LinSolRes|
+--------------------------------------------------------------------------------------------------------------------+
|         925|   -7.383738|   -6.809788|   -7.353820|   -7.018033|    0.128979|    2.623746|    1.053107|   -0.718826|
|         950|   -7.404897|   -6.768829|   -7.315275|   -7.054421|    0.133511|    2.619754|    1.050405|   -0.692153|
|         975|   -7.374865|   -6.725311|   -7.285693|   -7.028057|    0.138521|    2.615080|    1.047594|   -0.722433|
|        1000|   -7.304043|   -6.682324|   -7.229588|   -6.951814|    0.143860|    2.610739|    1.044530|   -0.886576|
+-----------------------------------------------------------------------+
|        File Writing Summary       |              Filename             |
+-----------------------------------------------------------------------+
|SU2 binary restart                 |restart.dat                        |
|Paraview                           |vol_solution.vtu                   |
|Paraview surface                   |surface.vtu                        |
+-----------------------------------------------------------------------+
+--------------------------------------------------------------------------------------------------------------------+
|  Inner_Iter|    rms[Rho]|   rms[RhoU]|   rms[RhoV]|   rms[RhoE]|          CD|          CL|         CMz|   LinSolRes|
+--------------------------------------------------------------------------------------------------------------------+
|        1025|   -7.273407|   -6.639583|   -7.191013|   -6.925236|    0.149722|    2.606386|    1.041431|   -0.812924|
|        1050|   -7.227928|   -6.597905|   -7.150417|   -6.879970|    0.155842|    2.601629|    1.037901|   -0.862865|
|        1075|   -7.186506|   -6.557406|   -7.108040|   -6.839096|    0.162393|    2.597330|    1.034461|   -0.940467|
|        1100|   -7.144366|   -6.518487|   -7.073875|   -6.796321|    0.169084|    2.592818|    1.030602|   -0.879646|
+-----------------------------------------------------------------------+
|        File Writing Summary       |              Filename             |
+-----------------------------------------------------------------------+
|SU2 binary restart                 |restart.dat                        |
|Paraview                           |vol_solution.vtu                   |
|Paraview surface                   |surface.vtu                        |
+-----------------------------------------------------------------------+
+--------------------------------------------------------------------------------------------------------------------+
|  Inner_Iter|    rms[Rho]|   rms[RhoU]|   rms[RhoV]|   rms[RhoE]|          CD|          CL|         CMz|   LinSolRes|
+--------------------------------------------------------------------------------------------------------------------+
|        1125|   -7.121563|   -6.482777|   -7.036361|   -6.777499|    0.176188|    2.589234|    1.027291|   -0.872453|
|        1150|   -7.078268|   -6.448974|   -6.999088|   -6.732797|    0.183620|    2.586619|    1.024570|   -0.860826|
|        1175|   -7.052638|   -6.418075|   -6.966170|   -6.709591|    0.191773|    2.586445|    1.023557|   -0.886635|
|        1200|   -7.016451|   -6.390511|   -6.926345|   -6.673204|    0.200487|    2.589229|    1.024400|   -0.855931|
+-----------------------------------------------------------------------+
|        File Writing Summary       |              Filename             |
+-----------------------------------------------------------------------+
|SU2 binary restart                 |restart.dat                        |
|Paraview                           |vol_solution.vtu                   |
|Paraview surface                   |surface.vtu                        |
+-----------------------------------------------------------------------+
+--------------------------------------------------------------------------------------------------------------------+
|  Inner_Iter|    rms[Rho]|   rms[RhoU]|   rms[RhoV]|   rms[RhoE]|          CD|          CL|         CMz|   LinSolRes|
+--------------------------------------------------------------------------------------------------------------------+
|        1225|   -6.992872|   -6.365025|   -6.880948|   -6.651603|    0.209994|    2.595867|    1.027929|   -0.822220|
|        1250|   -6.957891|   -6.340295|   -6.828594|   -6.615944|    0.220087|    2.607205|    1.034320|   -0.838580|
|        1275|   -6.935214|   -6.317055|   -6.782704|   -6.595317|    0.230800|    2.623442|    1.044022|   -0.804523|
|        1300|   -6.904160|   -6.296300|   -6.731134|   -6.563631|    0.242349|    2.645346|    1.057579|   -0.777238|
+-----------------------------------------------------------------------+
|        File Writing Summary       |              Filename             |
+-----------------------------------------------------------------------+
|SU2 binary restart                 |restart.dat                        |
|Paraview                           |vol_solution.vtu                   |
|Paraview surface                   |surface.vtu                        |
+-----------------------------------------------------------------------+
+--------------------------------------------------------------------------------------------------------------------+
|  Inner_Iter|    rms[Rho]|   rms[RhoU]|   rms[RhoV]|   rms[RhoE]|          CD|          CL|         CMz|   LinSolRes|
+--------------------------------------------------------------------------------------------------------------------+
|        1325|   -6.880605|   -6.274032|   -6.672697|   -6.541887|    0.254767|    2.673181|    1.075224|   -0.782343|
|        1350|   -6.859119|   -6.254320|   -6.613632|   -6.522739|    0.268394|    2.708003|    1.097802|   -0.718150|
|        1375|   -6.835583|   -6.234713|   -6.561229|   -6.502054|    0.282839|    2.748591|    1.124372|   -0.780497|
|        1400|   -6.828872|   -6.221180|   -6.519244|   -6.502660|    0.298946|    2.796109|    1.156693|   -0.810710|
+-----------------------------------------------------------------------+
|        File Writing Summary       |              Filename             |
+-----------------------------------------------------------------------+
|SU2 binary restart                 |restart.dat                        |
|Paraview                           |vol_solution.vtu                   |
|Paraview surface                   |surface.vtu                        |
+-----------------------------------------------------------------------+
+--------------------------------------------------------------------------------------------------------------------+
|  Inner_Iter|    rms[Rho]|   rms[RhoU]|   rms[RhoV]|   rms[RhoE]|          CD|          CL|         CMz|   LinSolRes|
+--------------------------------------------------------------------------------------------------------------------+
|        1425|   -6.814511|   -6.208639|   -6.484748|   -6.493022|    0.315784|    2.848398|    1.192866|   -0.832012|
|        1450|   -6.805740|   -6.196398|   -6.449178|   -6.489883|    0.334480|    2.905884|    1.234751|   -0.867550|
|        1475|   -6.797390|   -6.181834|   -6.415966|   -6.488216|    0.353678|    2.965441|    1.279693|   -0.866465|
|        1500|   -6.792638|   -6.163898|   -6.386422|   -6.490051|    0.373407|    3.024344|    1.327356|   -0.821417|
+-----------------------------------------------------------------------+
|        File Writing Summary       |              Filename             |
+-----------------------------------------------------------------------+
|SU2 binary restart                 |restart.dat                        |
|Paraview                           |vol_solution.vtu                   |
|Paraview surface                   |surface.vtu                        |
+-----------------------------------------------------------------------+
+--------------------------------------------------------------------------------------------------------------------+
|  Inner_Iter|    rms[Rho]|   rms[RhoU]|   rms[RhoV]|   rms[RhoE]|          CD|          CL|         CMz|   LinSolRes|
+--------------------------------------------------------------------------------------------------------------------+
|        1525|   -6.785136|   -6.138967|   -6.364978|   -6.486196|    0.392447|    3.077692|    1.375066|   -0.854698|
|        1550|   -6.774594|   -6.102767|   -6.346985|   -6.476695|    0.410985|    3.120311|    1.422076|   -0.822823|
|        1575|   -6.743306|   -6.046770|   -6.320113|   -6.438290|    0.430366|    3.149062|    1.469158|   -0.798754|
|        1600|   -6.690506|   -5.965613|   -6.266653|   -6.374300|    0.452415|    3.156553|    1.514643|   -0.781628|
+-----------------------------------------------------------------------+
|        File Writing Summary       |              Filename             |
+-----------------------------------------------------------------------+
|SU2 binary restart                 |restart.dat                        |
|Paraview                           |vol_solution.vtu                   |
|Paraview surface                   |surface.vtu                        |
+-----------------------------------------------------------------------+
+--------------------------------------------------------------------------------------------------------------------+
|  Inner_Iter|    rms[Rho]|   rms[RhoU]|   rms[RhoV]|   rms[RhoE]|          CD|          CL|         CMz|   LinSolRes|
+--------------------------------------------------------------------------------------------------------------------+
|        1625|   -6.602292|   -5.855896|   -6.163480|   -6.272344|    0.477658|    3.122278|    1.546404|   -0.761625|
|        1650|   -6.413187|   -5.690459|   -5.971588|   -6.064139|    0.501997|    2.976772|    1.528618|   -0.637362|
|        1675|   -6.196790|   -5.466993|   -5.713895|   -5.847718|    0.493571|    2.616846|    1.393806|   -0.693892|
|        1700|   -5.961970|   -5.231436|   -5.438556|   -5.604388|    0.408953|    1.985366|    1.084192|   -0.664390|
+-----------------------------------------------------------------------+
|        File Writing Summary       |              Filename             |
+-----------------------------------------------------------------------+
|SU2 binary restart                 |restart.dat                        |
|Paraview                           |vol_solution.vtu                   |
|Paraview surface                   |surface.vtu                        |
+-----------------------------------------------------------------------+
+--------------------------------------------------------------------------------------------------------------------+
|  Inner_Iter|    rms[Rho]|   rms[RhoU]|   rms[RhoV]|   rms[RhoE]|          CD|          CL|         CMz|   LinSolRes|
+--------------------------------------------------------------------------------------------------------------------+
|        1725|   -5.791609|   -5.052601|   -5.253706|   -5.429160|    0.303602|    1.322921|    0.754190|   -0.672150|
|        1750|   -5.783206|   -5.026413|   -5.180336|   -5.422987|    0.293196|    1.022718|    0.659536|   -0.791484|
|        1775|   -5.629655|   -4.881515|   -4.957252|   -5.216054|    0.360987|    1.175047|    0.808477|   -0.575407|
|        1800|   -5.261947|   -4.612973|   -4.689263|   -4.872673|    0.351823|    1.133184|    0.758440|   -0.700315|
+-----------------------------------------------------------------------+
|        File Writing Summary       |              Filename             |
+-----------------------------------------------------------------------+
|SU2 binary restart                 |restart.dat                        |
|Paraview                           |vol_solution.vtu                   |
|Paraview surface                   |surface.vtu                        |
+-----------------------------------------------------------------------+
+--------------------------------------------------------------------------------------------------------------------+
|  Inner_Iter|    rms[Rho]|   rms[RhoU]|   rms[RhoV]|   rms[RhoE]|          CD|          CL|         CMz|   LinSolRes|
+--------------------------------------------------------------------------------------------------------------------+
|        1825|   -5.032967|   -4.360201|   -4.527240|   -4.643763|    0.092763|    0.154453|    0.086858|   -0.673187|
|        1850|   -5.012034|   -4.400952|   -4.551078|   -4.623736|    0.446358|    1.430428|    0.970799|   -0.644442|
|        1875|   -5.262717|   -4.657792|   -4.741301|   -4.862938|    0.166195|    0.625368|    0.307160|   -0.653329|
|        1900|   -5.508840|   -4.905695|   -4.997205|   -5.078274|    0.342464|    1.353092|    0.826311|   -0.693085|
+-----------------------------------------------------------------------+
|        File Writing Summary       |              Filename             |
+-----------------------------------------------------------------------+
|SU2 binary restart                 |restart.dat                        |
|Paraview                           |vol_solution.vtu                   |
|Paraview surface                   |surface.vtu                        |
+-----------------------------------------------------------------------+
+--------------------------------------------------------------------------------------------------------------------+
|  Inner_Iter|    rms[Rho]|   rms[RhoU]|   rms[RhoV]|   rms[RhoE]|          CD|          CL|         CMz|   LinSolRes|
+--------------------------------------------------------------------------------------------------------------------+
|        1925|   -5.993603|   -5.389225|   -5.499711|   -5.571297|    0.245537|    1.035286|    0.515047|   -0.626684|
|        1950|   -6.238509|   -5.449694|   -5.695845|   -5.864026|    0.310771|    1.411524|    0.778823|   -0.667610|
|        1975|   -6.227582|   -5.514304|   -5.705501|   -5.825347|    0.266474|    1.285894|    0.647798|   -0.594782|
|        2000|   -6.244519|   -5.543326|   -5.711956|   -5.860857|    0.283308|    1.337946|    0.688966|   -0.591789|
+-----------------------------------------------------------------------+
|        File Writing Summary       |              Filename             |
+-----------------------------------------------------------------------+
|SU2 binary restart                 |restart.dat                        |
|Paraview                           |vol_solution.vtu                   |
|Paraview surface                   |surface.vtu                        |
+-----------------------------------------------------------------------+
+--------------------------------------------------------------------------------------------------------------------+
|  Inner_Iter|    rms[Rho]|   rms[RhoU]|   rms[RhoV]|   rms[RhoE]|          CD|          CL|         CMz|   LinSolRes|
+--------------------------------------------------------------------------------------------------------------------+
|        2025|   -6.310325|   -5.527105|   -5.708028|   -5.880262|    0.281322|    1.435537|    0.729070|   -0.608872|
|        2050|   -6.392682|   -5.612975|   -5.789606|   -5.955013|    0.279408|    1.387740|    0.694700|   -0.670660|
|        2075|   -6.601988|   -5.795997|   -6.013418|   -6.160070|    0.290256|    1.500721|    0.752832|   -0.646399|
|        2100|   -6.651443|   -6.035678|   -6.203426|   -6.252974|    0.295377|    1.508261|    0.757884|   -0.574064|
+-----------------------------------------------------------------------+
|        File Writing Summary       |              Filename             |
+-----------------------------------------------------------------------+
|SU2 binary restart                 |restart.dat                        |
|Paraview                           |vol_solution.vtu                   |
|Paraview surface                   |surface.vtu                        |
+-----------------------------------------------------------------------+
+--------------------------------------------------------------------------------------------------------------------+
|  Inner_Iter|    rms[Rho]|   rms[RhoU]|   rms[RhoV]|   rms[RhoE]|          CD|          CL|         CMz|   LinSolRes|
+--------------------------------------------------------------------------------------------------------------------+
|        2125|   -6.883924|   -6.163269|   -6.461148|   -6.491821|    0.304892|    1.578219|    0.790444|   -0.639762|
|        2150|   -6.834091|   -6.207569|   -6.421903|   -6.465623|    0.312385|    1.613870|    0.819796|   -0.830714|
|        2175|   -6.959851|   -6.270421|   -6.513843|   -6.601273|    0.322650|    1.635236|    0.831843|   -0.594156|
|        2200|   -6.975525|   -6.295783|   -6.592823|   -6.621886|    0.325425|    1.646786|    0.847238|   -0.700804|
+-----------------------------------------------------------------------+
|        File Writing Summary       |              Filename             |
+-----------------------------------------------------------------------+
|SU2 binary restart                 |restart.dat                        |
|Paraview                           |vol_solution.vtu                   |
|Paraview surface                   |surface.vtu                        |
+-----------------------------------------------------------------------+
+--------------------------------------------------------------------------------------------------------------------+
|  Inner_Iter|    rms[Rho]|   rms[RhoU]|   rms[RhoV]|   rms[RhoE]|          CD|          CL|         CMz|   LinSolRes|
+--------------------------------------------------------------------------------------------------------------------+
|        2225|   -6.936031|   -6.110782|   -6.461936|   -6.555265|    0.324563|    1.611453|    0.834402|   -0.724312|
|        2250|   -6.849197|   -6.116906|   -6.320581|   -6.489888|    0.326639|    1.574117|    0.824608|   -0.737760|
|        2275|   -6.896208|   -6.158622|   -6.372239|   -6.612986|    0.328518|    1.545987|    0.824330|   -0.858126|
|        2300|   -6.839186|   -5.986702|   -6.304857|   -6.507257|    0.315825|    1.454658|    0.774725|   -0.749335|
+-----------------------------------------------------------------------+
|        File Writing Summary       |              Filename             |
+-----------------------------------------------------------------------+
|SU2 binary restart                 |restart.dat                        |
|Paraview                           |vol_solution.vtu                   |
|Paraview surface                   |surface.vtu                        |
+-----------------------------------------------------------------------+
+--------------------------------------------------------------------------------------------------------------------+
|  Inner_Iter|    rms[Rho]|   rms[RhoU]|   rms[RhoV]|   rms[RhoE]|          CD|          CL|         CMz|   LinSolRes|
+--------------------------------------------------------------------------------------------------------------------+
|        2325|   -6.622546|   -5.869560|   -6.055910|   -6.250111|    0.312848|    1.389316|    0.753314|   -0.581042|
|        2350|   -6.632304|   -5.811118|   -5.977069|   -6.259275|    0.320427|    1.379096|    0.763253|   -0.687302|
|        2375|   -6.530368|   -5.738086|   -5.943337|   -6.095503|    0.300648|    1.277156|    0.702765|   -0.699856|
|        2400|   -6.598147|   -5.772634|   -5.950811|   -6.172666|    0.312692|    1.278201|    0.722547|   -0.650699|
+-----------------------------------------------------------------------+
|        File Writing Summary       |              Filename             |
+-----------------------------------------------------------------------+
|SU2 binary restart                 |restart.dat                        |
|Paraview                           |vol_solution.vtu                   |
|Paraview surface                   |surface.vtu                        |
+-----------------------------------------------------------------------+
+--------------------------------------------------------------------------------------------------------------------+
|  Inner_Iter|    rms[Rho]|   rms[RhoU]|   rms[RhoV]|   rms[RhoE]|          CD|          CL|         CMz|   LinSolRes|
+--------------------------------------------------------------------------------------------------------------------+
|        2425|   -6.675563|   -5.846273|   -6.037308|   -6.230034|    0.299175|    1.241007|    0.692537|   -0.880505|
|        2450|   -6.805964|   -5.912769|   -6.106247|   -6.406301|    0.297066|    1.206770|    0.677715|   -0.714628|
|        2475|   -6.779318|   -5.959515|   -6.123019|   -6.408800|    0.301377|    1.250743|    0.700849|   -0.659751|
|        2500|   -6.724002|   -6.049063|   -6.166363|   -6.323923|    0.291600|    1.216342|    0.672493|   -0.652044|
+-----------------------------------------------------------------------+
|        File Writing Summary       |              Filename             |
+-----------------------------------------------------------------------+
|SU2 binary restart                 |restart.dat                        |
|Paraview                           |vol_solution.vtu                   |
|Paraview surface                   |surface.vtu                        |
+-----------------------------------------------------------------------+
+--------------------------------------------------------------------------------------------------------------------+
|  Inner_Iter|    rms[Rho]|   rms[RhoU]|   rms[RhoV]|   rms[RhoE]|          CD|          CL|         CMz|   LinSolRes|
+--------------------------------------------------------------------------------------------------------------------+
|        2525|   -6.829554|   -6.075926|   -6.266435|   -6.418752|    0.300111|    1.276727|    0.705836|   -0.560553|
|        2550|   -6.883022|   -6.166555|   -6.308798|   -6.462278|    0.290867|    1.266872|    0.687424|   -0.665125|
|        2575|   -7.027516|   -6.217710|   -6.472584|   -6.605015|    0.297445|    1.314840|    0.712281|   -0.841521|
|        2600|   -7.061732|   -6.270880|   -6.501931|   -6.689531|    0.294669|    1.337263|    0.716034|   -0.619302|
+-----------------------------------------------------------------------+
|        File Writing Summary       |              Filename             |
+-----------------------------------------------------------------------+
|SU2 binary restart                 |restart.dat                        |
|Paraview                           |vol_solution.vtu                   |
|Paraview surface                   |surface.vtu                        |
+-----------------------------------------------------------------------+
+--------------------------------------------------------------------------------------------------------------------+
|  Inner_Iter|    rms[Rho]|   rms[RhoU]|   rms[RhoV]|   rms[RhoE]|          CD|          CL|         CMz|   LinSolRes|
+--------------------------------------------------------------------------------------------------------------------+
|        2625|   -7.086557|   -6.373377|   -6.562101|   -6.749183|    0.294975|    1.354045|    0.719447|   -0.660205|
|        2650|   -7.195037|   -6.390538|   -6.700347|   -6.796673|    0.296374|    1.389594|    0.734836|   -0.638813|
|        2675|   -7.177590|   -6.471792|   -6.717640|   -6.821190|    0.294178|    1.397953|    0.733196|   -0.692175|
|        2700|   -7.296117|   -6.477416|   -6.809801|   -6.931099|    0.297596|    1.425419|    0.747025|   -0.608577|
+-----------------------------------------------------------------------+
|        File Writing Summary       |              Filename             |
+-----------------------------------------------------------------------+
|SU2 binary restart                 |restart.dat                        |
|Paraview                           |vol_solution.vtu                   |
|Paraview surface                   |surface.vtu                        |
+-----------------------------------------------------------------------+
+--------------------------------------------------------------------------------------------------------------------+
|  Inner_Iter|    rms[Rho]|   rms[RhoU]|   rms[RhoV]|   rms[RhoE]|          CD|          CL|         CMz|   LinSolRes|
+--------------------------------------------------------------------------------------------------------------------+
|        2725|   -7.251165|   -6.470523|   -6.756733|   -6.881841|    0.297792|    1.442749|    0.753616|   -0.571638|
|        2750|   -7.239205|   -6.528920|   -6.744015|   -6.884843|    0.297056|    1.447001|    0.752760|   -0.640441|
|        2775|   -7.350129|   -6.576313|   -6.828158|   -6.932377|    0.299553|    1.465316|    0.763495|   -0.685242|
|        2800|   -7.473064|   -6.697483|   -6.941389|   -7.113404|    0.299575|    1.470447|    0.765117|   -0.589325|
+-----------------------------------------------------------------------+
|        File Writing Summary       |              Filename             |
+-----------------------------------------------------------------------+
|SU2 binary restart                 |restart.dat                        |
|Paraview                           |vol_solution.vtu                   |
|Paraview surface                   |surface.vtu                        |
+-----------------------------------------------------------------------+
+--------------------------------------------------------------------------------------------------------------------+
|  Inner_Iter|    rms[Rho]|   rms[RhoU]|   rms[RhoV]|   rms[RhoE]|          CD|          CL|         CMz|   LinSolRes|
+--------------------------------------------------------------------------------------------------------------------+
|        2825|   -7.490742|   -6.779636|   -7.019247|   -7.139909|    0.300733|    1.472865|    0.767475|   -0.579614|
|        2850|   -7.589491|   -6.846010|   -7.111455|   -7.205651|    0.302449|    1.479303|    0.773087|   -0.530624|
|        2875|   -7.463526|   -6.802247|   -7.103001|   -7.092524|    0.301487|    1.471318|    0.768926|   -0.645541|
|        2900|   -7.448309|   -6.745525|   -6.988550|   -7.064973|    0.301857|    1.465563|    0.768128|   -0.671324|
+-----------------------------------------------------------------------+
|        File Writing Summary       |              Filename             |
+-----------------------------------------------------------------------+
|SU2 binary restart                 |restart.dat                        |
|Paraview                           |vol_solution.vtu                   |
|Paraview surface                   |surface.vtu                        |
+-----------------------------------------------------------------------+
+--------------------------------------------------------------------------------------------------------------------+
|  Inner_Iter|    rms[Rho]|   rms[RhoU]|   rms[RhoV]|   rms[RhoE]|          CD|          CL|         CMz|   LinSolRes|
+--------------------------------------------------------------------------------------------------------------------+
|        2925|   -7.502397|   -6.828598|   -6.988007|   -7.153024|    0.302011|    1.460086|    0.767599|   -0.825997|
|        2950|   -7.574590|   -6.799019|   -7.136052|   -7.223436|    0.300751|    1.445785|    0.761090|   -0.666479|
|        2975|   -7.493650|   -6.820391|   -7.059766|   -7.142919|    0.300787|    1.435757|    0.758551|   -0.582675|
|        3000|   -7.489649|   -6.842652|   -7.100201|   -7.146536|    0.300341|    1.426139|    0.755409|   -0.760131|
+-----------------------------------------------------------------------+
|        File Writing Summary       |              Filename             |
+-----------------------------------------------------------------------+
|SU2 binary restart                 |restart.dat                        |
|Paraview                           |vol_solution.vtu                   |
|Paraview surface                   |surface.vtu                        |
+-----------------------------------------------------------------------+
+--------------------------------------------------------------------------------------------------------------------+
|  Inner_Iter|    rms[Rho]|   rms[RhoU]|   rms[RhoV]|   rms[RhoE]|          CD|          CL|         CMz|   LinSolRes|
+--------------------------------------------------------------------------------------------------------------------+
|        3025|   -7.576918|   -6.810676|   -7.190649|   -7.221292|    0.298810|    1.411126|    0.748291|   -0.578379|
|        3050|   -7.557701|   -6.838745|   -7.102333|   -7.223467|    0.298876|    1.403912|    0.746607|   -0.663370|
|        3075|   -7.634062|   -6.875382|   -7.188522|   -7.303892|    0.298167|    1.396727|    0.743570|   -0.630033|
|        3100|   -7.665781|   -6.927549|   -7.286784|   -7.288394|    0.297042|    1.387639|    0.738884|   -0.463970|
+-----------------------------------------------------------------------+
|        File Writing Summary       |              Filename             |
+-----------------------------------------------------------------------+
|SU2 binary restart                 |restart.dat                        |
|Paraview                           |vol_solution.vtu                   |
|Paraview surface                   |surface.vtu                        |
+-----------------------------------------------------------------------+
+--------------------------------------------------------------------------------------------------------------------+
|  Inner_Iter|    rms[Rho]|   rms[RhoU]|   rms[RhoV]|   rms[RhoE]|          CD|          CL|         CMz|   LinSolRes|
+--------------------------------------------------------------------------------------------------------------------+
|        3125|   -7.658494|   -6.987894|   -7.291584|   -7.308133|    0.296957|    1.385260|    0.738435|   -0.739137|
|        3150|   -7.708564|   -7.029220|   -7.361884|   -7.351628|    0.296113|    1.382385|    0.736432|   -0.611690|
|        3175|   -7.683067|   -7.100701|   -7.442466|   -7.304012|    0.295448|    1.379730|    0.734522|   -0.494071|
|        3200|   -7.814920|   -7.090648|   -7.442511|   -7.473645|    0.295586|    1.382639|    0.735983|   -0.471658|
+-----------------------------------------------------------------------+
|        File Writing Summary       |              Filename             |
+-----------------------------------------------------------------------+
|SU2 binary restart                 |restart.dat                        |
|Paraview                           |vol_solution.vtu                   |
|Paraview surface                   |surface.vtu                        |
+-----------------------------------------------------------------------+
+--------------------------------------------------------------------------------------------------------------------+
|  Inner_Iter|    rms[Rho]|   rms[RhoU]|   rms[RhoV]|   rms[RhoE]|          CD|          CL|         CMz|   LinSolRes|
+--------------------------------------------------------------------------------------------------------------------+
|        3225|   -7.774590|   -7.102112|   -7.348024|   -7.399045|    0.294833|    1.383680|    0.735331|   -0.475474|
|        3250|   -7.834727|   -7.204875|   -7.420751|   -7.473782|    0.294241|    1.384821|    0.734794|   -0.446718|
|        3275|   -7.852239|   -7.137479|   -7.491005|   -7.474458|    0.294236|    1.389914|    0.736766|   -0.424063|
|        3300|   -7.846004|   -7.148364|   -7.445008|   -7.483377|    0.293583|    1.393197|    0.737034|   -0.390875|
+-----------------------------------------------------------------------+
|        File Writing Summary       |              Filename             |
+-----------------------------------------------------------------------+
|SU2 binary restart                 |restart.dat                        |
|Paraview                           |vol_solution.vtu                   |
|Paraview surface                   |surface.vtu                        |
+-----------------------------------------------------------------------+
+--------------------------------------------------------------------------------------------------------------------+
|  Inner_Iter|    rms[Rho]|   rms[RhoU]|   rms[RhoV]|   rms[RhoE]|          CD|          CL|         CMz|   LinSolRes|
+--------------------------------------------------------------------------------------------------------------------+
|        3325|   -7.802635|   -7.158626|   -7.440878|   -7.454010|    0.293309|    1.396992|    0.737913|   -0.495859|
|        3350|   -7.810527|   -7.084482|   -7.478325|   -7.448056|    0.293533|    1.403421|    0.740634|   -0.427779|
|        3375|   -7.751396|   -7.073741|   -7.371631|   -7.387070|    0.293079|    1.407579|    0.741468|   -0.513335|
|        3400|   -7.779720|   -7.127723|   -7.438186|   -7.425831|    0.292719|    1.411209|    0.742275|   -0.464536|
+-----------------------------------------------------------------------+
|        File Writing Summary       |              Filename             |
+-----------------------------------------------------------------------+
|SU2 binary restart                 |restart.dat                        |
|Paraview                           |vol_solution.vtu                   |
|Paraview surface                   |surface.vtu                        |
+-----------------------------------------------------------------------+
+--------------------------------------------------------------------------------------------------------------------+
|  Inner_Iter|    rms[Rho]|   rms[RhoU]|   rms[RhoV]|   rms[RhoE]|          CD|          CL|         CMz|   LinSolRes|
+--------------------------------------------------------------------------------------------------------------------+
|        3425|   -7.809733|   -7.134882|   -7.557646|   -7.426015|    0.292740|    1.416487|    0.744409|   -0.413475|
|        3450|   -7.836990|   -7.182854|   -7.582456|   -7.474068|    0.292436|    1.419993|    0.745338|   -0.434569|
|        3475|   -7.819771|   -7.209060|   -7.570511|   -7.454689|    0.292249|    1.423006|    0.746244|   -0.480384|
|        3500|   -7.911045|   -7.240587|   -7.720341|   -7.539723|    0.292207|    1.426634|    0.747790|   -0.305292|
+-----------------------------------------------------------------------+
|        File Writing Summary       |              Filename             |
+-----------------------------------------------------------------------+
|SU2 binary restart                 |restart.dat                        |
|Paraview                           |vol_solution.vtu                   |
|Paraview surface                   |surface.vtu                        |
+-----------------------------------------------------------------------+
+--------------------------------------------------------------------------------------------------------------------+
|  Inner_Iter|    rms[Rho]|   rms[RhoU]|   rms[RhoV]|   rms[RhoE]|          CD|          CL|         CMz|   LinSolRes|
+--------------------------------------------------------------------------------------------------------------------+
|        3525|   -7.892118|   -7.289018|   -7.745483|   -7.517408|    0.291936|    1.428763|    0.748356|   -0.304078|
|        3550|   -7.982104|   -7.352393|   -7.789193|   -7.612615|    0.291713|    1.430374|    0.748802|   -0.339022|
|        3575|   -8.028295|   -7.409117|   -7.892943|   -7.636653|    0.291553|    1.432245|    0.749613|   -0.306728|
|        3600|   -8.085232|   -7.484955|   -7.951693|   -7.702639|    0.291154|    1.432654|    0.749475|   -0.304038|
+-----------------------------------------------------------------------+
|        File Writing Summary       |              Filename             |
+-----------------------------------------------------------------------+
|SU2 binary restart                 |restart.dat                        |
|Paraview                           |vol_solution.vtu                   |
|Paraview surface                   |surface.vtu                        |
+-----------------------------------------------------------------------+
+--------------------------------------------------------------------------------------------------------------------+
|  Inner_Iter|    rms[Rho]|   rms[RhoU]|   rms[RhoV]|   rms[RhoE]|          CD|          CL|         CMz|   LinSolRes|
+--------------------------------------------------------------------------------------------------------------------+
|        3625|   -8.191446|   -7.548881|   -7.934552|   -7.810427|    0.290868|    1.432842|    0.749422|   -0.350766|
|        3650|   -8.226750|   -7.632934|   -7.967308|   -7.829579|    0.290682|    1.433425|    0.749734|   -0.322966|
|        3675|   -8.266932|   -7.667272|   -8.012206|   -7.879173|    0.290258|    1.432850|    0.749191|   -0.312468|
|        3700|   -8.317458|   -7.701342|   -7.959637|   -7.933237|    0.289871|    1.432218|    0.748727|   -0.337895|
+-----------------------------------------------------------------------+
|        File Writing Summary       |              Filename             |
+-----------------------------------------------------------------------+
|SU2 binary restart                 |restart.dat                        |
|Paraview                           |vol_solution.vtu                   |
|Paraview surface                   |surface.vtu                        |
+-----------------------------------------------------------------------+
+--------------------------------------------------------------------------------------------------------------------+
|  Inner_Iter|    rms[Rho]|   rms[RhoU]|   rms[RhoV]|   rms[RhoE]|          CD|          CL|         CMz|   LinSolRes|
+--------------------------------------------------------------------------------------------------------------------+
|        3725|   -8.324578|   -7.722759|   -7.910213|   -7.927431|    0.289677|    1.432448|    0.748897|   -0.397815|
|        3750|   -8.359036|   -7.718846|   -8.002324|   -7.972083|    0.289389|    1.432202|    0.748634|   -0.345502|
|        3775|   -8.375331|   -7.782947|   -8.030772|   -7.990468|    0.289079|    1.431901|    0.748365|   -0.397755|
|        3800|   -8.446442|   -7.837912|   -8.181081|   -8.075804|    0.288769|    1.431905|    0.748257|   -0.342357|
+-----------------------------------------------------------------------+
|        File Writing Summary       |              Filename             |
+-----------------------------------------------------------------------+
|SU2 binary restart                 |restart.dat                        |
|Paraview                           |vol_solution.vtu                   |
|Paraview surface                   |surface.vtu                        |
+-----------------------------------------------------------------------+
+--------------------------------------------------------------------------------------------------------------------+
|  Inner_Iter|    rms[Rho]|   rms[RhoU]|   rms[RhoV]|   rms[RhoE]|          CD|          CL|         CMz|   LinSolRes|
+--------------------------------------------------------------------------------------------------------------------+
|        3825|   -8.453393|   -7.838966|   -8.173977|   -8.088321|    0.288325|    1.431432|    0.747725|   -0.345120|
|        3850|   -8.406806|   -7.782699|   -8.115760|   -8.038027|    0.287939|    1.431192|    0.747369|   -0.372847|
|        3875|   -8.380966|   -7.744879|   -8.101025|   -8.007417|    0.287587|    1.431417|    0.747271|   -0.352359|
|        3900|   -8.364289|   -7.708255|   -8.088021|   -7.984871|    0.287146|    1.431330|    0.746856|   -0.379231|
+-----------------------------------------------------------------------+
|        File Writing Summary       |              Filename             |
+-----------------------------------------------------------------------+
|SU2 binary restart                 |restart.dat                        |
|Paraview                           |vol_solution.vtu                   |
|Paraview surface                   |surface.vtu                        |
+-----------------------------------------------------------------------+
+--------------------------------------------------------------------------------------------------------------------+
|  Inner_Iter|    rms[Rho]|   rms[RhoU]|   rms[RhoV]|   rms[RhoE]|          CD|          CL|         CMz|   LinSolRes|
+--------------------------------------------------------------------------------------------------------------------+
|        3925|   -8.349646|   -7.681629|   -8.105924|   -7.979301|    0.286828|    1.431787|    0.746822|   -0.375270|
|        3950|   -8.256952|   -7.607684|   -8.030965|   -7.875436|    0.286537|    1.432704|    0.746990|   -0.330521|
|        3975|   -8.237558|   -7.605066|   -7.962398|   -7.858234|    0.286103|    1.433286|    0.746796|   -0.357259|
|        4000|   -8.265795|   -7.605667|   -8.031872|   -7.895383|    0.285744|    1.434287|    0.746901|   -0.374366|
+-----------------------------------------------------------------------+
|        File Writing Summary       |              Filename             |
+-----------------------------------------------------------------------+
|SU2 binary restart                 |restart.dat                        |
|Paraview                           |vol_solution.vtu                   |
|Paraview surface                   |surface.vtu                        |
+-----------------------------------------------------------------------+
+--------------------------------------------------------------------------------------------------------------------+
|  Inner_Iter|    rms[Rho]|   rms[RhoU]|   rms[RhoV]|   rms[RhoE]|          CD|          CL|         CMz|   LinSolRes|
+--------------------------------------------------------------------------------------------------------------------+
|        4025|   -8.218477|   -7.565829|   -8.022769|   -7.838358|    0.285437|    1.435660|    0.747213|   -0.334100|
|        4050|   -8.179091|   -7.546302|   -7.950695|   -7.802953|    0.285065|    1.436819|    0.747307|   -0.344774|
|        4075|   -8.173755|   -7.538500|   -7.966015|   -7.799272|    0.284723|    1.438217|    0.747574|   -0.340215|
|        4100|   -8.172924|   -7.537605|   -7.999906|   -7.794768|    0.284344|    1.439677|    0.747840|   -0.331647|
+-----------------------------------------------------------------------+
|        File Writing Summary       |              Filename             |
+-----------------------------------------------------------------------+
|SU2 binary restart                 |restart.dat                        |
|Paraview                           |vol_solution.vtu                   |
|Paraview surface                   |surface.vtu                        |
+-----------------------------------------------------------------------+
+--------------------------------------------------------------------------------------------------------------------+
|  Inner_Iter|    rms[Rho]|   rms[RhoU]|   rms[RhoV]|   rms[RhoE]|          CD|          CL|         CMz|   LinSolRes|
+--------------------------------------------------------------------------------------------------------------------+
|        4125|   -8.192787|   -7.537914|   -7.995116|   -7.821253|    0.283995|    1.441079|    0.748082|   -0.354530|
|        4150|   -8.133713|   -7.504340|   -7.960170|   -7.754450|    0.283728|    1.442782|    0.748566|   -0.318230|
|        4175|   -8.107510|   -7.500616|   -7.911542|   -7.725355|    0.283313|    1.444179|    0.748766|   -0.307290|
|        4200|   -8.183374|   -7.531048|   -7.965255|   -7.807874|    0.282894|    1.445342|    0.748869|   -0.359073|
+-----------------------------------------------------------------------+
|        File Writing Summary       |              Filename             |
+-----------------------------------------------------------------------+
|SU2 binary restart                 |restart.dat                        |
|Paraview                           |vol_solution.vtu                   |
|Paraview surface                   |surface.vtu                        |
+-----------------------------------------------------------------------+
+--------------------------------------------------------------------------------------------------------------------+
|  Inner_Iter|    rms[Rho]|   rms[RhoU]|   rms[RhoV]|   rms[RhoE]|          CD|          CL|         CMz|   LinSolRes|
+--------------------------------------------------------------------------------------------------------------------+
|        4225|   -8.167102|   -7.522756|   -7.997510|   -7.781059|    0.282619|    1.446922|    0.749334|   -0.329946|
|        4250|   -8.134651|   -7.518797|   -7.953111|   -7.750448|    0.282229|    1.448168|    0.749517|   -0.303707|
|        4275|   -8.172524|   -7.545956|   -7.955509|   -7.790128|    0.281761|    1.449038|    0.749462|   -0.349053|
|        4300|   -8.234912|   -7.565865|   -8.042839|   -7.847850|    0.281377|    1.450205|    0.749677|   -0.349439|
+-----------------------------------------------------------------------+
|        File Writing Summary       |              Filename             |
+-----------------------------------------------------------------------+
|SU2 binary restart                 |restart.dat                        |
|Paraview                           |vol_solution.vtu                   |
|Paraview surface                   |surface.vtu                        |
+-----------------------------------------------------------------------+
+--------------------------------------------------------------------------------------------------------------------+
|  Inner_Iter|    rms[Rho]|   rms[RhoU]|   rms[RhoV]|   rms[RhoE]|          CD|          CL|         CMz|   LinSolRes|
+--------------------------------------------------------------------------------------------------------------------+
|        4325|   -8.208214|   -7.564186|   -8.042401|   -7.823627|    0.281028|    1.451366|    0.749893|   -0.332229|
|        4350|   -8.175569|   -7.549149|   -7.976549|   -7.791603|    0.280660|    1.452421|    0.750032|   -0.320088|
|        4375|   -8.194161|   -7.564828|   -8.000940|   -7.809669|    0.280251|    1.453444|    0.750138|   -0.334167|
|        4400|   -8.233665|   -7.584048|   -8.073430|   -7.847048|    0.279803|    1.454231|    0.750081|   -0.326113|
+-----------------------------------------------------------------------+
|        File Writing Summary       |              Filename             |
+-----------------------------------------------------------------------+
|SU2 binary restart                 |restart.dat                        |
|Paraview                           |vol_solution.vtu                   |
|Paraview surface                   |surface.vtu                        |
+-----------------------------------------------------------------------+
+--------------------------------------------------------------------------------------------------------------------+
|  Inner_Iter|    rms[Rho]|   rms[RhoU]|   rms[RhoV]|   rms[RhoE]|          CD|          CL|         CMz|   LinSolRes|
+--------------------------------------------------------------------------------------------------------------------+
|        4425|   -8.235056|   -7.594051|   -8.087937|   -7.848406|    0.279326|    1.455019|    0.749996|   -0.338966|
|        4450|   -8.268023|   -7.594600|   -8.077349|   -7.887198|    0.278869|    1.455961|    0.750035|   -0.375789|
|        4475|   -8.217450|   -7.550239|   -7.999177|   -7.838065|    0.278570|    1.457233|    0.750355|   -0.352260|
|        4500|   -8.102138|   -7.487234|   -7.871572|   -7.715684|    0.278264|    1.458618|    0.750682|   -0.314303|
+-----------------------------------------------------------------------+
|        File Writing Summary       |              Filename             |
+-----------------------------------------------------------------------+
|SU2 binary restart                 |restart.dat                        |
|Paraview                           |vol_solution.vtu                   |
|Paraview surface                   |surface.vtu                        |
+-----------------------------------------------------------------------+
+--------------------------------------------------------------------------------------------------------------------+
|  Inner_Iter|    rms[Rho]|   rms[RhoU]|   rms[RhoV]|   rms[RhoE]|          CD|          CL|         CMz|   LinSolRes|
+--------------------------------------------------------------------------------------------------------------------+
|        4525|   -8.122195|   -7.509068|   -7.865085|   -7.738657|    0.277800|    1.459728|    0.750754|   -0.333277|
|        4550|   -8.222142|   -7.545686|   -7.988458|   -7.841817|    0.277362|    1.460782|    0.750827|   -0.363403|
|        4575|   -8.186231|   -7.547128|   -8.017691|   -7.796551|    0.276937|    1.461917|    0.750944|   -0.329184|
|        4600|   -8.197870|   -7.560140|   -8.034839|   -7.813086|    0.276398|    1.462821|    0.750869|   -0.337010|
+-----------------------------------------------------------------------+
|        File Writing Summary       |              Filename             |
+-----------------------------------------------------------------------+
|SU2 binary restart                 |restart.dat                        |
|Paraview                           |vol_solution.vtu                   |
|Paraview surface                   |surface.vtu                        |
+-----------------------------------------------------------------------+
+--------------------------------------------------------------------------------------------------------------------+
|  Inner_Iter|    rms[Rho]|   rms[RhoU]|   rms[RhoV]|   rms[RhoE]|          CD|          CL|         CMz|   LinSolRes|
+--------------------------------------------------------------------------------------------------------------------+
|        4625|   -8.230357|   -7.554601|   -8.028273|   -7.849085|    0.275976|    1.463894|    0.750996|   -0.375004|
|        4650|   -8.144773|   -7.504659|   -7.955720|   -7.758116|    0.275648|    1.465263|    0.751319|   -0.311985|
|        4675|   -8.100426|   -7.488118|   -7.871943|   -7.711132|    0.275150|    1.466296|    0.751299|   -0.321496|
|        4700|   -8.191191|   -7.530929|   -7.939031|   -7.808207|    0.274571|    1.467084|    0.751119|   -0.366925|
+-----------------------------------------------------------------------+
|        File Writing Summary       |              Filename             |
+-----------------------------------------------------------------------+
|SU2 binary restart                 |restart.dat                        |
|Paraview                           |vol_solution.vtu                   |
|Paraview surface                   |surface.vtu                        |
+-----------------------------------------------------------------------+
+--------------------------------------------------------------------------------------------------------------------+
|  Inner_Iter|    rms[Rho]|   rms[RhoU]|   rms[RhoV]|   rms[RhoE]|          CD|          CL|         CMz|   LinSolRes|
+--------------------------------------------------------------------------------------------------------------------+
|        4725|   -8.211686|   -7.524541|   -7.967395|   -7.819879|    0.274143|    1.468308|    0.751275|   -0.368141|
|        4750|   -8.149291|   -7.507968|   -7.966099|   -7.763094|    0.273699|    1.469571|    0.751411|   -0.330774|
|        4775|   -8.129127|   -7.491991|   -7.902290|   -7.744125|    0.273197|    1.470745|    0.751449|   -0.341779|
|        4800|   -8.156087|   -7.497563|   -7.948988|   -7.776055|    0.272746|    1.472153|    0.751652|   -0.360172|
+-----------------------------------------------------------------------+
|        File Writing Summary       |              Filename             |
+-----------------------------------------------------------------------+
|SU2 binary restart                 |restart.dat                        |
|Paraview                           |vol_solution.vtu                   |
|Paraview surface                   |surface.vtu                        |
+-----------------------------------------------------------------------+
+--------------------------------------------------------------------------------------------------------------------+
|  Inner_Iter|    rms[Rho]|   rms[RhoU]|   rms[RhoV]|   rms[RhoE]|          CD|          CL|         CMz|   LinSolRes|
+--------------------------------------------------------------------------------------------------------------------+
|        4825|   -8.119186|   -7.476453|   -7.948111|   -7.736057|    0.272354|    1.473765|    0.751984|   -0.337064|
|        4850|   -8.092533|   -7.466256|   -7.898752|   -7.710237|    0.271899|    1.475316|    0.752209|   -0.327947|
|        4875|   -8.119152|   -7.478458|   -7.924570|   -7.739090|    0.271382|    1.476772|    0.752369|   -0.346219|
|        4900|   -8.140141|   -7.481133|   -7.973466|   -7.758244|    0.270931|    1.478354|    0.752651|   -0.339767|
+-----------------------------------------------------------------------+
|        File Writing Summary       |              Filename             |
+-----------------------------------------------------------------------+
|SU2 binary restart                 |restart.dat                        |
|Paraview                           |vol_solution.vtu                   |
|Paraview surface                   |surface.vtu                        |
+-----------------------------------------------------------------------+
+--------------------------------------------------------------------------------------------------------------------+
|  Inner_Iter|    rms[Rho]|   rms[RhoU]|   rms[RhoV]|   rms[RhoE]|          CD|          CL|         CMz|   LinSolRes|
+--------------------------------------------------------------------------------------------------------------------+
|        4925|   -8.098762|   -7.467164|   -7.952600|   -7.714483|    0.270482|    1.479892|    0.752905|   -0.322835|
|        4950|   -8.093003|   -7.468769|   -7.920801|   -7.707632|    0.269913|    1.481164|    0.752933|   -0.319210|
[...]
|  Inner_Iter|    rms[Rho]|   rms[RhoU]|   rms[RhoV]|   rms[RhoE]|          CD|          CL|         CMz|   LinSolRes|
+--------------------------------------------------------------------------------------------------------------------+
|       23625|   -8.275532|   -7.533745|   -8.067844|   -7.922735|    0.091200|    2.610993|    1.054839|   -0.502898|
|       23650|   -8.257573|   -7.519655|   -8.047998|   -7.903804|    0.091709|    2.609338|    1.054054|   -0.494553|
|       23675|   -8.239638|   -7.505000|   -8.027756|   -7.885478|    0.092255|    2.607600|    1.053244|   -0.483590|
|       23700|   -8.219757|   -7.490578|   -8.011110|   -7.864101|    0.092813|    2.605789|    1.052386|   -0.483815|
+-----------------------------------------------------------------------+
|        File Writing Summary       |              Filename             |
+-----------------------------------------------------------------------+
|SU2 binary restart                 |restart.dat                        |
|Paraview                           |vol_solution.vtu                   |
|Paraview surface                   |surface.vtu                        |
+-----------------------------------------------------------------------+
+--------------------------------------------------------------------------------------------------------------------+
|  Inner_Iter|    rms[Rho]|   rms[RhoU]|   rms[RhoV]|   rms[RhoE]|          CD|          CL|         CMz|   LinSolRes|
+--------------------------------------------------------------------------------------------------------------------+
|       23725|   -8.198783|   -7.476351|   -7.993737|   -7.840956|    0.093392|    2.603828|    1.051470|   -0.485052|
|       23750|   -8.186026|   -7.461627|   -7.973481|   -7.828907|    0.094015|    2.601840|    1.050546|   -0.476388|
|       23775|   -8.167961|   -7.447122|   -7.955311|   -7.809999|    0.094656|    2.599731|    1.049567|   -0.465253|
|       23800|   -8.158898|   -7.432694|   -7.942674|   -7.801655|    0.095326|    2.597530|    1.048539|   -0.474294|
+-----------------------------------------------------------------------+
|        File Writing Summary       |              Filename             |
+-----------------------------------------------------------------------+
|SU2 binary restart                 |restart.dat                        |
|Paraview                           |vol_solution.vtu                   |
|Paraview surface                   |surface.vtu                        |
+-----------------------------------------------------------------------+
+--------------------------------------------------------------------------------------------------------------------+
|  Inner_Iter|    rms[Rho]|   rms[RhoU]|   rms[RhoV]|   rms[RhoE]|          CD|          CL|         CMz|   LinSolRes|
+--------------------------------------------------------------------------------------------------------------------+
|       23825|   -8.139886|   -7.417303|   -7.926639|   -7.782084|    0.096044|    2.595257|    1.047499|   -0.476808|
|       23850|   -8.112618|   -7.401694|   -7.907230|   -7.752179|    0.096782|    2.592883|    1.046391|   -0.468617|
|       23875|   -8.103982|   -7.386012|   -7.891731|   -7.745118|    0.097555|    2.590422|    1.045254|   -0.465297|
|       23900|   -8.087093|   -7.370108|   -7.878152|   -7.727832|    0.098388|    2.587896|    1.044099|   -0.480767|
+-----------------------------------------------------------------------+
|        File Writing Summary       |              Filename             |
+-----------------------------------------------------------------------+
|SU2 binary restart                 |restart.dat                        |
|Paraview                           |vol_solution.vtu                   |
|Paraview surface                   |surface.vtu                        |
+-----------------------------------------------------------------------+
+--------------------------------------------------------------------------------------------------------------------+
|  Inner_Iter|    rms[Rho]|   rms[RhoU]|   rms[RhoV]|   rms[RhoE]|          CD|          CL|         CMz|   LinSolRes|
+--------------------------------------------------------------------------------------------------------------------+
|       23925|   -8.070509|   -7.354214|   -7.861735|   -7.710936|    0.099246|    2.585257|    1.042866|   -0.480797|
|       23950|   -8.050584|   -7.337873|   -7.845831|   -7.690533|    0.100155|    2.582513|    1.041612|   -0.475622|
|       23975|   -8.037710|   -7.320870|   -7.832559|   -7.678691|    0.101118|    2.579717|    1.040320|   -0.480358|
|       24000|   -8.019726|   -7.303676|   -7.816353|   -7.660360|    0.102125|    2.576828|    1.038983|   -0.482371|
+-----------------------------------------------------------------------+
|        File Writing Summary       |              Filename             |
+-----------------------------------------------------------------------+
|SU2 binary restart                 |restart.dat                        |
|Paraview                           |vol_solution.vtu                   |
|Paraview surface                   |surface.vtu                        |
+-----------------------------------------------------------------------+
+--------------------------------------------------------------------------------------------------------------------+
|  Inner_Iter|    rms[Rho]|   rms[RhoU]|   rms[RhoV]|   rms[RhoE]|          CD|          CL|         CMz|   LinSolRes|
+--------------------------------------------------------------------------------------------------------------------+
|       24025|   -8.004695|   -7.286259|   -7.799910|   -7.645946|    0.103193|    2.573857|    1.037610|   -0.480273|
|       24050|   -7.982605|   -7.268207|   -7.786625|   -7.623140|    0.104322|    2.570815|    1.036206|   -0.485953|
|       24075|   -7.960982|   -7.249574|   -7.772242|   -7.600811|    0.105517|    2.567669|    1.034750|   -0.497690|
|       24100|   -7.950009|   -7.230612|   -7.755616|   -7.591649|    0.106788|    2.564492|    1.033276|   -0.496737|
+-----------------------------------------------------------------------+
|        File Writing Summary       |              Filename             |
+-----------------------------------------------------------------------+
|SU2 binary restart                 |restart.dat                        |
|Paraview                           |vol_solution.vtu                   |
|Paraview surface                   |surface.vtu                        |
+-----------------------------------------------------------------------+
+--------------------------------------------------------------------------------------------------------------------+
|  Inner_Iter|    rms[Rho]|   rms[RhoU]|   rms[RhoV]|   rms[RhoE]|          CD|          CL|         CMz|   LinSolRes|
+--------------------------------------------------------------------------------------------------------------------+
|       24125|   -7.928516|   -7.210960|   -7.740422|   -7.569964|    0.108122|    2.561210|    1.031741|   -0.497872|
|       24150|   -7.907939|   -7.190624|   -7.723268|   -7.549275|    0.109553|    2.557861|    1.030178|   -0.496809|
|       24175|   -7.883254|   -7.169569|   -7.708326|   -7.524107|    0.111066|    2.554436|    1.028566|   -0.521388|
|       24200|   -7.866434|   -7.147640|   -7.688247|   -7.508928|    0.112675|    2.550941|    1.026916|   -0.517320|
+-----------------------------------------------------------------------+
|        File Writing Summary       |              Filename             |
+-----------------------------------------------------------------------+
|SU2 binary restart                 |restart.dat                        |
|Paraview                           |vol_solution.vtu                   |
|Paraview surface                   |surface.vtu                        |
+-----------------------------------------------------------------------+
+--------------------------------------------------------------------------------------------------------------------+
|  Inner_Iter|    rms[Rho]|   rms[RhoU]|   rms[RhoV]|   rms[RhoE]|          CD|          CL|         CMz|   LinSolRes|
+--------------------------------------------------------------------------------------------------------------------+
|       24225|   -7.842447|   -7.125090|   -7.671530|   -7.485067|    0.114399|    2.547380|    1.025226|   -0.514582|
|       24250|   -7.815317|   -7.101902|   -7.653631|   -7.457424|    0.116231|    2.543736|    1.023488|   -0.525032|
|       24275|   -7.790020|   -7.077907|   -7.633750|   -7.432404|    0.118195|    2.540064|    1.021717|   -0.538140|
|       24300|   -7.768970|   -7.053202|   -7.614181|   -7.412748|    0.120288|    2.536325|    1.019903|   -0.536825|
+-----------------------------------------------------------------------+
|        File Writing Summary       |              Filename             |
+-----------------------------------------------------------------------+
|SU2 binary restart                 |restart.dat                        |
|Paraview                           |vol_solution.vtu                   |
|Paraview surface                   |surface.vtu                        |
+-----------------------------------------------------------------------+
+--------------------------------------------------------------------------------------------------------------------+
|  Inner_Iter|    rms[Rho]|   rms[RhoU]|   rms[RhoV]|   rms[RhoE]|          CD|          CL|         CMz|   LinSolRes|
+--------------------------------------------------------------------------------------------------------------------+
|       24325|   -7.734973|   -7.027439|   -7.593475|   -7.378007|    0.122520|    2.532532|    1.018042|   -0.557751|
|       24350|   -7.716806|   -7.001205|   -7.573422|   -7.362548|    0.124898|    2.528694|    1.016150|   -0.540217|
|       24375|   -7.676770|   -6.974199|   -7.546855|   -7.320154|    0.127428|    2.524851|    1.014211|   -0.574319|
|       24400|   -7.649918|   -6.947329|   -7.523565|   -7.294251|    0.130150|    2.521039|    1.012264|   -0.561051|
+-----------------------------------------------------------------------+
|        File Writing Summary       |              Filename             |
+-----------------------------------------------------------------------+
|SU2 binary restart                 |restart.dat                        |
|Paraview                           |vol_solution.vtu                   |
|Paraview surface                   |surface.vtu                        |
+-----------------------------------------------------------------------+
+--------------------------------------------------------------------------------------------------------------------+
|  Inner_Iter|    rms[Rho]|   rms[RhoU]|   rms[RhoV]|   rms[RhoE]|          CD|          CL|         CMz|   LinSolRes|
+--------------------------------------------------------------------------------------------------------------------+
|       24425|   -7.615874|   -6.919183|   -7.501162|   -7.260542|    0.133017|    2.517214|    1.010262|   -0.594170|
|       24450|   -7.534456|   -6.887980|   -7.466863|   -7.170838|    0.136082|    2.513459|    1.008233|   -0.821032|
|       24475|   -7.568556|   -6.862359|   -7.449334|   -7.217514|    0.139335|    2.509615|    1.006149|   -0.720040|
|       24500|   -7.510007|   -6.832150|   -7.420829|   -7.154169|    0.142773|    2.505831|    1.003952|   -0.763736|
+-----------------------------------------------------------------------+
|        File Writing Summary       |              Filename             |
+-----------------------------------------------------------------------+
|SU2 binary restart                 |restart.dat                        |
|Paraview                           |vol_solution.vtu                   |
|Paraview surface                   |surface.vtu                        |
+-----------------------------------------------------------------------+
+--------------------------------------------------------------------------------------------------------------------+
|  Inner_Iter|    rms[Rho]|   rms[RhoU]|   rms[RhoV]|   rms[RhoE]|          CD|          CL|         CMz|   LinSolRes|
+--------------------------------------------------------------------------------------------------------------------+
|       24525|   -7.465262|   -6.802155|   -7.394611|   -7.105338|    0.146496|    2.501909|    1.001924|   -0.810459|
|       24550|   -7.463722|   -6.773402|   -7.361457|   -7.113712|    0.150334|    2.498519|    0.999710|   -0.739387|
|       24575|   -7.428157|   -6.744096|   -7.334324|   -7.076378|    0.154599|    2.495427|    0.997936|   -0.848321|
|       24600|   -7.419449|   -6.716730|   -7.312031|   -7.073388|    0.159005|    2.492892|    0.996219|   -0.814281|
+-----------------------------------------------------------------------+
|        File Writing Summary       |              Filename             |
+-----------------------------------------------------------------------+
|SU2 binary restart                 |restart.dat                        |
|Paraview                           |vol_solution.vtu                   |
|Paraview surface                   |surface.vtu                        |
+-----------------------------------------------------------------------+
+--------------------------------------------------------------------------------------------------------------------+
|  Inner_Iter|    rms[Rho]|   rms[RhoU]|   rms[RhoV]|   rms[RhoE]|          CD|          CL|         CMz|   LinSolRes|
+--------------------------------------------------------------------------------------------------------------------+
|       24625|   -7.370968|   -6.688938|   -7.291223|   -7.020465|    0.163874|    2.491110|    0.995093|   -0.699876|
|       24650|   -7.346311|   -6.662249|   -7.261786|   -6.997987|    0.168994|    2.489965|    0.994351|   -0.782682|
|       24675|   -7.301689|   -6.633658|   -7.223924|   -6.950705|    0.174511|    2.490725|    0.994417|   -0.879972|
|       24700|   -7.278410|   -6.608511|   -7.193072|   -6.929065|    0.180350|    2.492355|    0.995238|   -0.751426|
+-----------------------------------------------------------------------+
|        File Writing Summary       |              Filename             |
+-----------------------------------------------------------------------+
|SU2 binary restart                 |restart.dat                        |
|Paraview                           |vol_solution.vtu                   |
|Paraview surface                   |surface.vtu                        |
+-----------------------------------------------------------------------+
+--------------------------------------------------------------------------------------------------------------------+
|  Inner_Iter|    rms[Rho]|   rms[RhoU]|   rms[RhoV]|   rms[RhoE]|          CD|          CL|         CMz|   LinSolRes|
+--------------------------------------------------------------------------------------------------------------------+
|       24725|   -7.249953|   -6.581209|   -7.146085|   -6.902979|    0.186545|    2.495942|    0.997050|   -0.773885|
|       24750|   -7.217096|   -6.553991|   -7.104415|   -6.870178|    0.193220|    2.501583|    1.000215|   -0.724223|
|       24775|   -7.192196|   -6.529760|   -7.056139|   -6.848692|    0.200255|    2.509407|    1.004582|   -0.669990|
|       24800|   -7.153038|   -6.505529|   -7.011040|   -6.808276|    0.207793|    2.519724|    1.010648|   -0.795759|
+-----------------------------------------------------------------------+
|        File Writing Summary       |              Filename             |
+-----------------------------------------------------------------------+
|SU2 binary restart                 |restart.dat                        |
|Paraview                           |vol_solution.vtu                   |
|Paraview surface                   |surface.vtu                        |
+-----------------------------------------------------------------------+
+--------------------------------------------------------------------------------------------------------------------+
|  Inner_Iter|    rms[Rho]|   rms[RhoU]|   rms[RhoV]|   rms[RhoE]|          CD|          CL|         CMz|   LinSolRes|
+--------------------------------------------------------------------------------------------------------------------+
|       24825|   -7.126933|   -6.480649|   -6.962054|   -6.784652|    0.215861|    2.532980|    1.018586|   -0.795961|
|       24850|   -7.098190|   -6.457438|   -6.914616|   -6.756897|    0.224414|    2.549006|    1.028458|   -0.782402|
|       24875|   -7.064022|   -6.432936|   -6.861592|   -6.723026|    0.233772|    2.568576|    1.040915|   -0.759242|
|       24900|   -7.042552|   -6.409772|   -6.808328|   -6.704919|    0.243757|    2.591597|    1.055893|   -0.775781|
+-----------------------------------------------------------------------+
|        File Writing Summary       |              Filename             |
+-----------------------------------------------------------------------+
|SU2 binary restart                 |restart.dat                        |
|Paraview                           |vol_solution.vtu                   |
|Paraview surface                   |surface.vtu                        |
+-----------------------------------------------------------------------+
+--------------------------------------------------------------------------------------------------------------------+
|  Inner_Iter|    rms[Rho]|   rms[RhoU]|   rms[RhoV]|   rms[RhoE]|          CD|          CL|         CMz|   LinSolRes|
+--------------------------------------------------------------------------------------------------------------------+
|       24925|   -7.016188|   -6.387782|   -6.761474|   -6.679855|    0.254375|    2.618043|    1.073361|   -0.732359|
|       24950|   -6.994758|   -6.365979|   -6.720254|   -6.661735|    0.265863|    2.648098|    1.093885|   -0.765638|
|       24975|   -6.970832|   -6.344543|   -6.676043|   -6.640895|    0.278422|    2.681844|    1.117692|   -0.788934|
|       24999|   -6.954593|   -6.325027|   -6.633696|   -6.629608|    0.291470|    2.717652|    1.143775|   -0.810681|

----------------------------- Solver Exit -------------------------------

Maximum number of iterations reached (ITER = 25000) before convergence.
+-----------------------------------------------------------------------+
|      Convergence Field     |     Value    |   Criterion  |  Converged |
+-----------------------------------------------------------------------+
|                  Cauchy[CL]|    0.00018785|       < 5e-07|          No|
+-----------------------------------------------------------------------+
-------------------------------------------------------------------------
+-----------------------------------------------------------------------+
|        File Writing Summary       |              Filename             |
+-----------------------------------------------------------------------+
|SU2 binary restart                 |restart.dat                        |
|Paraview                           |vol_solution.vtu                   |
|Paraview surface                   |surface.vtu                        |
+-----------------------------------------------------------------------+

------------------------- Solver Postprocessing -------------------------
Deleted CNumerics container.
Deleted CIntegration container.
Deleted CSolver container.
Deleted CIteration container.
Deleted CInterface container.
Deleted CGeometry container.
Deleted CFreeFormDefBox class.
Deleted CSurfaceMovement class.
Deleted CVolumetricMovement class.
Deleted CConfig container.
Deleted nInst container.
Deleted COutput class.
-------------------------------------------------------------------------

------------------------- Exit Success (SU2_CFD) ------------------------

