WARNING: The current SST-1994m model is inconsistent with literature. We recommend using the SST-2003m model.
In SU2 v8 the 2003m model will become default, and the inconsistency will be fixed.

-------------------------------------------------------------------------
|    ___ _   _ ___                                                      |
|   / __| | | |_  )   Release 7.4.0 "Blackbird"                         |
|   \__ \ |_| |/ /                                                      |
|   |___/\___//___|   Suite (Computational Fluid Dynamics Code)         |
|                                                                       |
-------------------------------------------------------------------------
| SU2 Project Website: https://su2code.github.io                        |
|                                                                       |
| The SU2 Project is maintained by the SU2 Foundation                   |
| (http://su2foundation.org)                                            |
-------------------------------------------------------------------------
| Copyright 2012-2022, SU2 Contributors                                 |
|                                                                       |
| SU2 is free software; you can redistribute it and/or                  |
| modify it under the terms of the GNU Lesser General Public            |
| License as published by the Free Software Foundation; either          |
| version 2.1 of the License, or (at your option) any later version.    |
|                                                                       |
| SU2 is distributed in the hope that it will be useful,                |
| but WITHOUT ANY WARRANTY; without even the implied warranty of        |
| MERCHANTABILITY or FITNESS FOR A PARTICULAR PURPOSE. See the GNU      |
| Lesser General Public License for more details.                       |
|                                                                       |
| You should have received a copy of the GNU Lesser General Public      |
| License along with SU2. If not, see <http://www.gnu.org/licenses/>.   |
-------------------------------------------------------------------------
WARNING: The current SST-1994m model is inconsistent with literature. We recommend using the SST-2003m model.
In SU2 v8 the 2003m model will become default, and the inconsistency will be fixed.

Parsing config file for zone 0
WARNING: The current SST-1994m model is inconsistent with literature. We recommend using the SST-2003m model.
In SU2 v8 the 2003m model will become default, and the inconsistency will be fixed.

----------------- Physical Case Definition ( Zone 0 ) -------------------
Compressible RANS equations.
Turbulence model: Menter's k-omega SST-1994m with no production modification.
Hybrid RANS/LES: No Hybrid RANS/LES
Mach number: 0.8.
Angle of attack (AoA): 0 deg, and angle of sideslip (AoS): 0 deg.
Reynolds number: 1.68307e+07. Reference length 2.62.
No restart solution, use the values at infinity (freestream).
Non-Dimensional simulation (V=Mach, Rho=1.0, T=1.0 at the farfield).
The reference area is 2.62 m^2.
The semi-span will be computed using the max y(3D) value.
The reference length is 2.62 m.
Reference origin for moment evaluation is (0, 0, 0).
Surface(s) where the force coefficients are evaluated: wall.

Surface(s) plotted in the output file: wall.
Input mesh file name: su2meshEx.su2

--------------- Space Numerical Integration ( Zone 0 ) ------------------
Roe (with entropy fix = 1e-05) solver for the flow inviscid terms.
Standard Roe without low-dissipation function.
Second order integration in space, with slope limiter.
Van Albada slope-limiting method implemented by edges.
Scalar upwind solver for the turbulence model.
First order integration in space.
Average of gradients with correction (viscous flow terms).
Average of gradients with correction (viscous turbulence terms).
Gradient for upwind reconstruction: Green-Gauss.
Gradient for viscous and source terms: Green-Gauss.

--------------- Time Numerical Integration  ( Zone 0 ) ------------------
Local time stepping (steady state simulation).
Euler implicit method for the flow equations.
FGMRES is used for solving the linear system.
Using a ILU(0) preconditioning.
Convergence criteria of the linear solver: 0.2.
Max number of linear iterations: 4.
CFL adaptation. Factor down: 0.1, factor up: 1.2,
                lower limit: 25, upper limit: 1000,
                acceptable linear residual: 0.001.
Courant-Friedrichs-Lewy number:       25
Euler implicit time integration for the turbulence model.

------------------ Convergence Criteria  ( Zone 0 ) ---------------------
Maximum number of solver subiterations: 25000.
Begin convergence monitoring at iteration 10.
Residual minimum value: 1e-11.5.
Cauchy series min. value: 5e-07.
Number of Cauchy elements: 500.
Begin windowed time average at iteration 0.

-------------------- Output Information ( Zone 0 ) ----------------------
File writing frequency: 
+------------------------------------+
|                     File| Frequency|
+------------------------------------+
|                  RESTART|       100|
|                 PARAVIEW|       100|
|         SURFACE_PARAVIEW|       100|
+------------------------------------+
Writing the convergence history file every 1 inner iterations.
Writing the screen convergence history every 25 inner iterations.
The tabular file format is CSV (.csv).
Convergence history file name: history.
Forces breakdown file name: forces_breakdown.dat.
Surface file name: surface.
Volume file name: vol_solution.
Restart file name: restart.dat.

------------- Config File Boundary Information ( Zone 0 ) ---------------
+-----------------------------------------------------------------------+
|                        Marker Type|                        Marker Name|
+-----------------------------------------------------------------------+
|                          Far-field|                          far-field|
+-----------------------------------------------------------------------+
|                     Heat flux wall|                               wall|
+-----------------------------------------------------------------------+

-------------------- Output Preprocessing ( Zone 0 ) --------------------

WARNING: SURFACE_PRESSURE_DROP can only be computed for at least 2 surfaces (outlet, inlet, ...)

  Info: Ignoring the following screen output fields:
  RMS_NU_TILDE
Screen output fields: INNER_ITER, RMS_DENSITY, RMS_MOMENTUM-X, RMS_MOMENTUM-Y, RMS_ENERGY, DRAG, LIFT, MOMENT_Z, LINSOL_RESIDUAL
History output group(s): ITER, RMS_RES, AERO_COEFF
Convergence field(s): LIFT
Warning: No (valid) fields chosen for time convergence monitoring. Time convergence monitoring inactive.
Volume output fields: COORDINATES, SOLUTION, PRIMITIVE

------------------- Geometry Preprocessing ( Zone 0 ) -------------------
Two dimensional problem.
66420 grid points before partitioning.
66015 volume elements before partitioning.
2 surface markers.
405 boundary elements in index 0 (Marker = far-field).
405 boundary elements in index 1 (Marker = wall).
Executing the partitioning functions.
Building the graph adjacency structure.
Calling ParMETIS... graph partitioning complete (858 edge cuts).
Distributing ParMETIS coloring.
Rebalancing vertices.
Rebalancing volume element connectivity.
Rebalancing markers and surface elements.
68136 vertices including ghost points. 
66869 interior elements including halo cells. 
66869 quadrilaterals.
Establishing MPI communication patterns.
Setting point connectivity.
Renumbering points (Reverse Cuthill McKee Ordering).
Recomputing point connectivity.
Setting element connectivity.
Checking the numerical grid orientation.
All volume elements are correctly orientend.
All surface elements are correctly orientend.
Identifying edges and vertices.
Setting the control volume structure.
Area of the computational grid: 172535.
Searching for the closest normal neighbors to the surfaces.
Storing a mapping from global to local point index.
Compute the surface curvature.
Max K: 1084.38. Mean K: 3.5904. Standard deviation K: 49.7608.
Checking for periodicity.
Computing mesh quality statistics for the dual control volumes.
+--------------------------------------------------------------+
|           Mesh Quality Metric|        Minimum|        Maximum|
+--------------------------------------------------------------+
|    Orthogonality Angle (deg.)|        82.7694|             90|
|     CV Face Area Aspect Ratio|        1.00252|        12980.1|
|           CV Sub-Volume Ratio|              1|        2.23331|
+--------------------------------------------------------------+
Finding max control volume width.
Communicating number of neighbors.
Wetted area = 5.32649 m.
Area projection in the x-plane = 0.29702 m, y-plane = 2.61984 m.
Max. coordinate in the x-direction = 2.62 m, y-direction = 0.165086 m.
Min. coordinate in the x-direction = 0 m, y-direction = -0.119236 m.
Computing wall distances.

-------------------- Solver Preprocessing ( Zone 0 ) --------------------
Viscous flow: Computing pressure using the ideal gas law
based on the free-stream temperature and a density computed
from the Reynolds number.
Force coefficients computed using free-stream values.

-- Models:
+------------------------------------------------------------------------------+
|          Viscosity Model|        Conductivity Model|              Fluid Model|
+------------------------------------------------------------------------------+
|               SUTHERLAND|          CONSTANT_PRANDTL|             STANDARD_AIR|
+------------------------------------------------------------------------------+
-- Fluid properties:
+------------------------------------------------------------------------------+
|                  Name|    Dim. value|    Ref. value|      Unit|Non-dim. value|
+------------------------------------------------------------------------------+
|        Ref. Viscosity|     1.716e-05|       115.582|   N.s/m^2|   1.48466e-07|
|      Sutherland Temp.|        273.15|       219.907|         K|       1.24212|
|     Sutherland Const.|         110.4|       219.907|         K|      0.502031|
+------------------------------------------------------------------------------+
|        Prandtl (Lam.)|             -|             -|         -|          0.72|
|       Prandtl (Turb.)|             -|             -|         -|           0.9|
+------------------------------------------------------------------------------+
|          Gas Constant|       287.058|       401.881|  N.m/kg.K|      0.714286|
|      Spec. Heat Ratio|             -|             -|         -|           1.4|
+------------------------------------------------------------------------------+
-- Initial and free-stream conditions:
+------------------------------------------------------------------------------+
|                  Name|    Dim. value|    Ref. value|      Unit|Non-dim. value|
+------------------------------------------------------------------------------+
|       Static Pressure|       24543.1|       34360.4|        Pa|      0.714286|
|               Density|      0.388796|      0.388796|    kg/m^3|             1|
|           Temperature|       219.907|       219.907|         K|             1|
|          Total Energy|        186307|       88376.4|   m^2/s^2|       2.10811|
|            Velocity-X|       237.825|       297.282|       m/s|           0.8|
|            Velocity-Y|             0|       297.282|       m/s|             0|
|    Velocity Magnitude|       237.825|       297.282|       m/s|           0.8|
+------------------------------------------------------------------------------+
|             Viscosity|   1.43939e-05|       115.582|   N.s/m^2|   1.24534e-07|
|          Conductivity|             -|       46450.2|   W/m^2.K|             -|
|     Turb. Kin. Energy|       212.103|       88376.4|   m^2/s^2|        0.0024|
|     Spec. Dissipation|        572917|       297.282|       1/s|       1927.18|
+------------------------------------------------------------------------------+
|           Mach Number|             -|             -|         -|           0.8|
|       Reynolds Number|             -|             -|         -|   1.68307e+07|
+------------------------------------------------------------------------------+
Initialize Jacobian structure (Navier-Stokes). MG level: 0.
Initialize Jacobian structure (SST model).

------------------- Numerics Preprocessing ( Zone 0 ) -------------------

----------------- Integration Preprocessing ( Zone 0 ) ------------------

------------------- Iteration Preprocessing ( Zone 0 ) ------------------
Euler/Navier-Stokes/RANS fluid iteration.

------------------------------ Begin Solver -----------------------------

Simulation Run using the Single-zone Driver
WARNING: SU2 was not compiled for an AVX-capable architecture.
+--------------------------------------------------------------------------------------------------------------------+
|  Inner_Iter|    rms[Rho]|   rms[RhoU]|   rms[RhoV]|   rms[RhoE]|          CD|          CL|         CMz|   LinSolRes|
+--------------------------------------------------------------------------------------------------------------------+
|           0|   -3.969218|  -15.214282|  -15.636097|   -3.518599|    0.133776|   -0.003344|    0.014056|   -0.810453|
|          25|   -4.319260|   -4.530117|   -4.564907|   -3.958912|    0.082541|    0.113589|    0.141491|   -0.668116|
|          50|   -4.184257|   -4.325555|   -4.661536|   -3.847802|    0.064188|    0.222344|    0.212764|   -0.997058|
|          75|   -4.206981|   -4.557841|   -4.508163|   -3.869760|    0.047713|    0.309503|    0.261470|   -0.817452|
|         100|   -4.144117|   -4.564496|   -4.506252|   -3.823758|    0.031986|    0.407889|    0.313969|   -0.690089|
+-----------------------------------------------------------------------+
|        File Writing Summary       |              Filename             |
+-----------------------------------------------------------------------+
|SU2 binary restart                 |restart.dat                        |
|Paraview                           |vol_solution.vtu                   |
|Paraview surface                   |surface.vtu                        |
+-----------------------------------------------------------------------+
+--------------------------------------------------------------------------------------------------------------------+
|  Inner_Iter|    rms[Rho]|   rms[RhoU]|   rms[RhoV]|   rms[RhoE]|          CD|          CL|         CMz|   LinSolRes|
+--------------------------------------------------------------------------------------------------------------------+
|         125|   -4.323704|   -4.437733|   -4.602297|   -3.951247|    0.025803|    0.468973|    0.336175|   -0.798924|
|         150|   -4.520796|   -4.778117|   -4.682779|   -4.206980|    0.022689|    0.516115|    0.347922|   -1.018622|
|         175|   -4.654171|   -4.850834|   -4.936965|   -4.306981|    0.022354|    0.562283|    0.347019|   -0.759574|
|         200|   -4.913737|   -4.911811|   -5.159069|   -4.541462|    0.026465|    0.584553|    0.332793|   -0.676104|
+-----------------------------------------------------------------------+
|        File Writing Summary       |              Filename             |
+-----------------------------------------------------------------------+
|SU2 binary restart                 |restart.dat                        |
|Paraview                           |vol_solution.vtu                   |
|Paraview surface                   |surface.vtu                        |
+-----------------------------------------------------------------------+
+--------------------------------------------------------------------------------------------------------------------+
|  Inner_Iter|    rms[Rho]|   rms[RhoU]|   rms[RhoV]|   rms[RhoE]|          CD|          CL|         CMz|   LinSolRes|
+--------------------------------------------------------------------------------------------------------------------+
|         225|   -5.110976|   -5.087472|   -5.415724|   -4.754539|    0.032849|    0.563005|    0.313289|   -0.626249|
|         250|   -4.912698|   -4.997774|   -5.250473|   -4.592878|    0.035020|    0.548079|    0.319830|   -0.638022|
|         275|   -4.994778|   -5.056908|   -5.288969|   -4.681399|    0.037410|    0.554317|    0.341695|   -0.516865|
|         300|   -5.258819|   -5.184522|   -5.576249|   -4.896858|    0.037747|    0.578465|    0.370218|   -0.677163|
+-----------------------------------------------------------------------+
|        File Writing Summary       |              Filename             |
+-----------------------------------------------------------------------+
|SU2 binary restart                 |restart.dat                        |
|Paraview                           |vol_solution.vtu                   |
|Paraview surface                   |surface.vtu                        |
+-----------------------------------------------------------------------+
+--------------------------------------------------------------------------------------------------------------------+
|  Inner_Iter|    rms[Rho]|   rms[RhoU]|   rms[RhoV]|   rms[RhoE]|          CD|          CL|         CMz|   LinSolRes|
+--------------------------------------------------------------------------------------------------------------------+
|         325|   -5.370616|   -5.246527|   -5.669982|   -4.987731|    0.032157|    0.612910|    0.395945|   -0.890458|
|         350|   -5.290621|   -5.429063|   -5.645634|   -4.967532|    0.028549|    0.633813|    0.398719|   -0.728667|
|         375|   -5.212440|   -5.302725|   -5.500550|   -4.875614|    0.030389|    0.641672|    0.386925|   -0.554868|
|         400|   -5.252265|   -5.323364|   -5.524692|   -4.922166|    0.034395|    0.631906|    0.365359|   -0.545597|
+-----------------------------------------------------------------------+
|        File Writing Summary       |              Filename             |
+-----------------------------------------------------------------------+
|SU2 binary restart                 |restart.dat                        |
|Paraview                           |vol_solution.vtu                   |
|Paraview surface                   |surface.vtu                        |
+-----------------------------------------------------------------------+
+--------------------------------------------------------------------------------------------------------------------+
|  Inner_Iter|    rms[Rho]|   rms[RhoU]|   rms[RhoV]|   rms[RhoE]|          CD|          CL|         CMz|   LinSolRes|
+--------------------------------------------------------------------------------------------------------------------+
|         425|   -5.392580|   -5.407869|   -5.641692|   -5.036537|    0.036474|    0.605228|    0.341669|   -0.889887|
|         450|   -5.487977|   -5.495269|   -5.821813|   -5.133286|    0.034936|    0.568828|    0.323086|   -0.540704|
|         475|   -5.537656|   -5.742911|   -5.785704|   -5.221296|    0.031243|    0.541107|    0.314726|   -0.772639|
|         500|   -5.508290|   -5.706003|   -5.753404|   -5.185291|    0.028200|    0.523830|    0.312402|   -0.721753|
+-----------------------------------------------------------------------+
|        File Writing Summary       |              Filename             |
+-----------------------------------------------------------------------+
|SU2 binary restart                 |restart.dat                        |
|Paraview                           |vol_solution.vtu                   |
|Paraview surface                   |surface.vtu                        |
+-----------------------------------------------------------------------+
+--------------------------------------------------------------------------------------------------------------------+
|  Inner_Iter|    rms[Rho]|   rms[RhoU]|   rms[RhoV]|   rms[RhoE]|          CD|          CL|         CMz|   LinSolRes|
+--------------------------------------------------------------------------------------------------------------------+
|         525|   -5.439924|   -5.491440|   -5.723823|   -5.092843|    0.026238|    0.517122|    0.313032|   -0.710538|
|         550|   -5.435778|   -5.458734|   -5.777044|   -5.080822|    0.025011|    0.517300|    0.313865|   -0.873597|
|         575|   -5.467508|   -5.563038|   -5.884409|   -5.120489|    0.023992|    0.520012|    0.313646|   -0.850015|
|         600|   -5.496938|   -5.786058|   -5.842275|   -5.178969|    0.023539|    0.522051|    0.310974|   -0.901966|
+-----------------------------------------------------------------------+
|        File Writing Summary       |              Filename             |
+-----------------------------------------------------------------------+
|SU2 binary restart                 |restart.dat                        |
|Paraview                           |vol_solution.vtu                   |
|Paraview surface                   |surface.vtu                        |
+-----------------------------------------------------------------------+
+--------------------------------------------------------------------------------------------------------------------+
|  Inner_Iter|    rms[Rho]|   rms[RhoU]|   rms[RhoV]|   rms[RhoE]|          CD|          CL|         CMz|   LinSolRes|
+--------------------------------------------------------------------------------------------------------------------+
|         625|   -5.476611|   -5.730889|   -5.725776|   -5.149971|    0.023949|    0.521117|    0.305474|   -0.950142|
|         650|   -5.488228|   -5.418337|   -5.826292|   -5.110493|    0.025229|    0.515365|    0.298294|   -0.886586|
|         675|   -5.855125|   -5.792006|   -6.226186|   -5.476431|    0.026050|    0.502487|    0.290441|   -0.715958|
|         700|   -5.873058|   -6.081023|   -6.125473|   -5.562412|    0.026133|    0.493364|    0.288783|   -0.775189|
+-----------------------------------------------------------------------+
|        File Writing Summary       |              Filename             |
+-----------------------------------------------------------------------+
|SU2 binary restart                 |restart.dat                        |
|Paraview                           |vol_solution.vtu                   |
|Paraview surface                   |surface.vtu                        |
+-----------------------------------------------------------------------+
+--------------------------------------------------------------------------------------------------------------------+
|  Inner_Iter|    rms[Rho]|   rms[RhoU]|   rms[RhoV]|   rms[RhoE]|          CD|          CL|         CMz|   LinSolRes|
+--------------------------------------------------------------------------------------------------------------------+
|         725|   -5.815071|   -5.956194|   -6.083924|   -5.492011|    0.025653|    0.489302|    0.290068|   -0.486693|
|         750|   -5.872505|   -5.824600|   -6.125744|   -5.506634|    0.025057|    0.490650|    0.294083|   -0.875866|
|         775|   -6.037392|   -5.989464|   -6.378608|   -5.654497|    0.024127|    0.498032|    0.299615|   -0.725631|
|         800|   -5.980924|   -6.266276|   -6.212468|   -5.664113|    0.023924|    0.504344|    0.301255|   -0.423967|
+-----------------------------------------------------------------------+
|        File Writing Summary       |              Filename             |
+-----------------------------------------------------------------------+
|SU2 binary restart                 |restart.dat                        |
|Paraview                           |vol_solution.vtu                   |
|Paraview surface                   |surface.vtu                        |
+-----------------------------------------------------------------------+
+--------------------------------------------------------------------------------------------------------------------+
|  Inner_Iter|    rms[Rho]|   rms[RhoU]|   rms[RhoV]|   rms[RhoE]|          CD|          CL|         CMz|   LinSolRes|
+--------------------------------------------------------------------------------------------------------------------+
|         825|   -6.023018|   -6.148327|   -6.251265|   -5.685660|    0.024612|    0.507344|    0.300216|   -0.782181|
|         850|   -6.274161|   -6.122095|   -6.569480|   -5.865548|    0.025804|    0.505208|    0.296456|   -0.677725|
|         875|   -6.302983|   -6.340856|   -6.657586|   -5.972378|    0.026161|    0.500660|    0.294212|   -0.711909|
|         900|   -6.297532|   -6.517722|   -6.557913|   -5.977834|    0.025911|    0.497593|    0.293973|   -0.612671|
+-----------------------------------------------------------------------+
|        File Writing Summary       |              Filename             |
+-----------------------------------------------------------------------+
|SU2 binary restart                 |restart.dat                        |
|Paraview                           |vol_solution.vtu                   |
|Paraview surface                   |surface.vtu                        |
+-----------------------------------------------------------------------+
+--------------------------------------------------------------------------------------------------------------------+
|  Inner_Iter|    rms[Rho]|   rms[RhoU]|   rms[RhoV]|   rms[RhoE]|          CD|          CL|         CMz|   LinSolRes|
+--------------------------------------------------------------------------------------------------------------------+
|         925|   -6.335019|   -6.343540|   -6.510787|   -5.975662|    0.025304|    0.496426|    0.295023|   -0.639508|
|         950|   -6.293798|   -6.315536|   -6.689428|   -5.937684|    0.024744|    0.497029|    0.295841|   -0.733860|
|         975|   -6.240039|   -6.466273|   -6.736996|   -5.913052|    0.024509|    0.497659|    0.295641|   -0.792492|
|        1000|   -6.222427|   -6.620945|   -6.673941|   -5.911166|    0.024501|    0.497667|    0.294635|   -0.791988|
+-----------------------------------------------------------------------+
|        File Writing Summary       |              Filename             |
+-----------------------------------------------------------------------+
|SU2 binary restart                 |restart.dat                        |
|Paraview                           |vol_solution.vtu                   |
|Paraview surface                   |surface.vtu                        |
+-----------------------------------------------------------------------+
+--------------------------------------------------------------------------------------------------------------------+
|  Inner_Iter|    rms[Rho]|   rms[RhoU]|   rms[RhoV]|   rms[RhoE]|          CD|          CL|         CMz|   LinSolRes|
+--------------------------------------------------------------------------------------------------------------------+
|        1025|   -6.162689|   -6.478985|   -6.573992|   -5.854124|    0.024626|    0.496742|    0.292977|   -0.817286|
|        1050|   -6.205923|   -6.410311|   -6.630995|   -5.887345|    0.024757|    0.494759|    0.290898|   -0.876493|
|        1075|   -6.317641|   -6.421063|   -6.710370|   -5.987646|    0.024806|    0.491919|    0.288714|   -0.527311|
|        1100|   -6.383362|   -6.509154|   -6.805471|   -6.064813|    0.024735|    0.488509|    0.286647|   -0.697170|
+-----------------------------------------------------------------------+
|        File Writing Summary       |              Filename             |
+-----------------------------------------------------------------------+
|SU2 binary restart                 |restart.dat                        |
|Paraview                           |vol_solution.vtu                   |
|Paraview surface                   |surface.vtu                        |
+-----------------------------------------------------------------------+
+--------------------------------------------------------------------------------------------------------------------+
|  Inner_Iter|    rms[Rho]|   rms[RhoU]|   rms[RhoV]|   rms[RhoE]|          CD|          CL|         CMz|   LinSolRes|
+--------------------------------------------------------------------------------------------------------------------+
|        1125|   -6.406948|   -6.683651|   -6.779386|   -6.103069|    0.024536|    0.484711|    0.284802|   -0.699346|
|        1150|   -6.355989|   -6.647238|   -6.682824|   -6.043507|    0.024243|    0.481303|    0.283478|   -0.853751|
|        1175|   -6.352500|   -6.488346|   -6.764349|   -6.024882|    0.023938|    0.479160|    0.282725|   -0.748378|
|        1200|   -6.371329|   -6.440912|   -6.851267|   -6.025757|    0.023665|    0.477773|    0.282138|   -0.811623|
+-----------------------------------------------------------------------+
|        File Writing Summary       |              Filename             |
+-----------------------------------------------------------------------+
|SU2 binary restart                 |restart.dat                        |
|Paraview                           |vol_solution.vtu                   |
|Paraview surface                   |surface.vtu                        |
+-----------------------------------------------------------------------+
+--------------------------------------------------------------------------------------------------------------------+
|  Inner_Iter|    rms[Rho]|   rms[RhoU]|   rms[RhoV]|   rms[RhoE]|          CD|          CL|         CMz|   LinSolRes|
+--------------------------------------------------------------------------------------------------------------------+
|        1225|   -6.383791|   -6.643802|   -6.974837|   -6.070542|    0.023455|    0.476739|    0.281472|   -0.879875|
|        1250|   -6.366508|   -6.749823|   -6.937733|   -6.067857|    0.023345|    0.475761|    0.280589|   -0.761497|
|        1275|   -6.382879|   -6.738542|   -6.810080|   -6.084070|    0.023314|    0.474444|    0.279390|   -0.601802|
|        1300|   -6.401802|   -6.597657|   -6.904515|   -6.085172|    0.023332|    0.472926|    0.278146|   -0.645839|
+-----------------------------------------------------------------------+
|        File Writing Summary       |              Filename             |
+-----------------------------------------------------------------------+
|SU2 binary restart                 |restart.dat                        |
|Paraview                           |vol_solution.vtu                   |
|Paraview surface                   |surface.vtu                        |
+-----------------------------------------------------------------------+
+--------------------------------------------------------------------------------------------------------------------+
|  Inner_Iter|    rms[Rho]|   rms[RhoU]|   rms[RhoV]|   rms[RhoE]|          CD|          CL|         CMz|   LinSolRes|
+--------------------------------------------------------------------------------------------------------------------+
|        1325|   -6.510757|   -6.682369|   -6.949635|   -6.190366|    0.023337|    0.471114|    0.276874|   -0.627625|
|        1350|   -6.418808|   -6.184980|   -7.043626|   -6.041471|    0.023325|    0.469152|    0.275718|   -1.048770|
|        1375|   -6.649441|   -6.939314|   -7.068292|   -6.355991|    0.023249|    0.466804|    0.274575|   -0.747574|
|        1400|   -6.687025|   -6.886912|   -7.075387|   -6.377598|    0.023140|    0.465174|    0.273975|   -0.554718|
+-----------------------------------------------------------------------+
|        File Writing Summary       |              Filename             |
+-----------------------------------------------------------------------+
|SU2 binary restart                 |restart.dat                        |
|Paraview                           |vol_solution.vtu                   |
|Paraview surface                   |surface.vtu                        |
+-----------------------------------------------------------------------+
+--------------------------------------------------------------------------------------------------------------------+
|  Inner_Iter|    rms[Rho]|   rms[RhoU]|   rms[RhoV]|   rms[RhoE]|          CD|          CL|         CMz|   LinSolRes|
+--------------------------------------------------------------------------------------------------------------------+
|        1425|   -6.722848|   -6.853854|   -7.148050|   -6.408459|    0.022985|    0.463942|    0.273622|   -0.690174|
|        1450|   -6.728893|   -6.861068|   -7.285282|   -6.400153|    0.022844|    0.463207|    0.273379|   -0.663711|
|        1475|   -6.734190|   -6.967798|   -7.203524|   -6.421470|    0.022784|    0.462791|    0.273103|   -0.634915|
|        1500|   -6.762173|   -6.929614|   -7.264570|   -6.451263|    0.022784|    0.462364|    0.272697|   -0.355706|
+-----------------------------------------------------------------------+
|        File Writing Summary       |              Filename             |
+-----------------------------------------------------------------------+
|SU2 binary restart                 |restart.dat                        |
|Paraview                           |vol_solution.vtu                   |
|Paraview surface                   |surface.vtu                        |
+-----------------------------------------------------------------------+
+--------------------------------------------------------------------------------------------------------------------+
|  Inner_Iter|    rms[Rho]|   rms[RhoU]|   rms[RhoV]|   rms[RhoE]|          CD|          CL|         CMz|   LinSolRes|
+--------------------------------------------------------------------------------------------------------------------+
|        1525|   -6.793223|   -7.044097|   -7.263341|   -6.479860|    0.022812|    0.461800|    0.272201|   -0.600630|
|        1550|   -6.857857|   -6.970334|   -7.315629|   -6.541967|    0.022842|    0.461071|    0.271665|   -0.752955|
|        1575|   -6.895267|   -7.064791|   -7.320454|   -6.585756|    0.022855|    0.460222|    0.271151|   -0.606892|
|        1600|   -6.938034|   -7.059450|   -7.362656|   -6.611928|    0.022842|    0.459349|    0.270719|   -0.827314|
+-----------------------------------------------------------------------+
|        File Writing Summary       |              Filename             |
+-----------------------------------------------------------------------+
|SU2 binary restart                 |restart.dat                        |
|Paraview                           |vol_solution.vtu                   |
|Paraview surface                   |surface.vtu                        |
+-----------------------------------------------------------------------+
+--------------------------------------------------------------------------------------------------------------------+
|  Inner_Iter|    rms[Rho]|   rms[RhoU]|   rms[RhoV]|   rms[RhoE]|          CD|          CL|         CMz|   LinSolRes|
+--------------------------------------------------------------------------------------------------------------------+
|        1625|   -6.923838|   -7.136064|   -7.371594|   -6.625332|    0.022804|    0.458612|    0.270423|   -0.657567|
|        1650|   -6.951737|   -7.128738|   -7.366213|   -6.652836|    0.022752|    0.458022|    0.270213|   -0.613686|
|        1675|   -6.922210|   -7.084190|   -7.336746|   -6.614877|    0.022697|    0.457555|    0.270041|   -0.764088|
|        1700|   -6.917145|   -7.114865|   -7.421696|   -6.614345|    0.022649|    0.457157|    0.269857|   -0.643448|
+-----------------------------------------------------------------------+
|        File Writing Summary       |              Filename             |
+-----------------------------------------------------------------------+
|SU2 binary restart                 |restart.dat                        |
|Paraview                           |vol_solution.vtu                   |
|Paraview surface                   |surface.vtu                        |
+-----------------------------------------------------------------------+
+--------------------------------------------------------------------------------------------------------------------+
|  Inner_Iter|    rms[Rho]|   rms[RhoU]|   rms[RhoV]|   rms[RhoE]|          CD|          CL|         CMz|   LinSolRes|
+--------------------------------------------------------------------------------------------------------------------+
|        1725|   -6.868407|   -7.123170|   -7.465286|   -6.563703|    0.022616|    0.456799|    0.269642|   -0.796677|
|        1750|   -6.810238|   -7.115082|   -7.371010|   -6.522160|    0.022599|    0.456409|    0.269360|   -0.789627|
|        1775|   -6.783988|   -7.089058|   -7.377676|   -6.489710|    0.022588|    0.455930|    0.269001|   -0.896220|
|        1800|   -6.780623|   -7.033345|   -7.335280|   -6.456496|    0.022585|    0.455371|    0.268597|   -0.947799|
+-----------------------------------------------------------------------+
|        File Writing Summary       |              Filename             |
+-----------------------------------------------------------------------+
|SU2 binary restart                 |restart.dat                        |
|Paraview                           |vol_solution.vtu                   |
|Paraview surface                   |surface.vtu                        |
+-----------------------------------------------------------------------+
+--------------------------------------------------------------------------------------------------------------------+
|  Inner_Iter|    rms[Rho]|   rms[RhoU]|   rms[RhoV]|   rms[RhoE]|          CD|          CL|         CMz|   LinSolRes|
+--------------------------------------------------------------------------------------------------------------------+
|        1825|   -6.807132|   -6.925396|   -7.350100|   -6.504369|    0.022573|    0.454550|    0.268043|   -0.666934|
|        1850|   -6.816032|   -7.119328|   -7.336051|   -6.520701|    0.022553|    0.453634|    0.267484|   -0.667692|
|        1875|   -6.825035|   -7.145472|   -7.327991|   -6.526754|    0.022508|    0.452563|    0.266885|   -0.643874|
|        1900|   -6.844178|   -7.194555|   -7.367030|   -6.558647|    0.022448|    0.451565|    0.266352|   -0.583805|
+-----------------------------------------------------------------------+
|        File Writing Summary       |              Filename             |
+-----------------------------------------------------------------------+
|SU2 binary restart                 |restart.dat                        |
|Paraview                           |vol_solution.vtu                   |
|Paraview surface                   |surface.vtu                        |
+-----------------------------------------------------------------------+
+--------------------------------------------------------------------------------------------------------------------+
|  Inner_Iter|    rms[Rho]|   rms[RhoU]|   rms[RhoV]|   rms[RhoE]|          CD|          CL|         CMz|   LinSolRes|
+--------------------------------------------------------------------------------------------------------------------+
|        1925|   -6.805480|   -7.128475|   -7.351846|   -6.511502|    0.022389|    0.450733|    0.265922|   -0.684839|
|        1950|   -6.828769|   -7.126884|   -7.363837|   -6.536683|    0.022329|    0.449954|    0.265504|   -0.800837|
|        1975|   -6.828979|   -7.110185|   -7.321501|   -6.531981|    0.022274|    0.449223|    0.265095|   -0.786740|
|        2000|   -6.789673|   -7.141695|   -7.257677|   -6.506042|    0.022225|    0.448485|    0.264657|   -0.769605|
+-----------------------------------------------------------------------+
|        File Writing Summary       |              Filename             |
+-----------------------------------------------------------------------+
|SU2 binary restart                 |restart.dat                        |
|Paraview                           |vol_solution.vtu                   |
|Paraview surface                   |surface.vtu                        |
+-----------------------------------------------------------------------+
+--------------------------------------------------------------------------------------------------------------------+
|  Inner_Iter|    rms[Rho]|   rms[RhoU]|   rms[RhoV]|   rms[RhoE]|          CD|          CL|         CMz|   LinSolRes|
+--------------------------------------------------------------------------------------------------------------------+
|        2025|   -6.824193|   -7.134051|   -7.340780|   -6.538573|    0.022182|    0.447736|    0.264193|   -0.809401|
|        2050|   -6.733783|   -6.799285|   -7.322777|   -6.419510|    0.022149|    0.446980|    0.263727|   -0.842490|
|        2075|   -6.799293|   -7.087213|   -7.270705|   -6.503204|    0.022119|    0.446118|    0.263208|   -0.520569|
|        2100|   -6.784431|   -7.151964|   -7.284811|   -6.486795|    0.022088|    0.445204|    0.262680|   -0.601120|
+-----------------------------------------------------------------------+
|        File Writing Summary       |              Filename             |
+-----------------------------------------------------------------------+
|SU2 binary restart                 |restart.dat                        |
|Paraview                           |vol_solution.vtu                   |
|Paraview surface                   |surface.vtu                        |
+-----------------------------------------------------------------------+
+--------------------------------------------------------------------------------------------------------------------+
|  Inner_Iter|    rms[Rho]|   rms[RhoU]|   rms[RhoV]|   rms[RhoE]|          CD|          CL|         CMz|   LinSolRes|
+--------------------------------------------------------------------------------------------------------------------+
|        2125|   -6.769307|   -7.142560|   -7.347442|   -6.482390|    0.022047|    0.444240|    0.262146|   -0.669336|
|        2150|   -6.821870|   -7.159331|   -7.381495|   -6.526984|    0.022014|    0.443472|    0.261752|   -0.728304|
|        2175|   -6.530804|   -6.231871|   -7.360627|   -6.005472|    0.021974|    0.442757|    0.261386|   -1.026862|
|        2200|   -6.935421|   -7.254884|   -7.446821|   -6.650796|    0.021933|    0.442050|    0.261018|   -0.611335|
+-----------------------------------------------------------------------+
|        File Writing Summary       |              Filename             |
+-----------------------------------------------------------------------+
|SU2 binary restart                 |restart.dat                        |
|Paraview                           |vol_solution.vtu                   |
|Paraview surface                   |surface.vtu                        |
+-----------------------------------------------------------------------+
+--------------------------------------------------------------------------------------------------------------------+
|  Inner_Iter|    rms[Rho]|   rms[RhoU]|   rms[RhoV]|   rms[RhoE]|          CD|          CL|         CMz|   LinSolRes|
+--------------------------------------------------------------------------------------------------------------------+
|        2225|   -6.877988|   -7.167437|   -7.430154|   -6.579522|    0.021899|    0.441422|    0.260692|   -0.586379|
|        2250|   -6.949260|   -7.254065|   -7.475683|   -6.655546|    0.021866|    0.440827|    0.260362|   -0.693907|
|        2275|   -6.973007|   -7.154557|   -7.465252|   -6.682059|    0.021838|    0.440197|    0.260007|   -0.553943|
|        2300|   -6.991928|   -7.299274|   -7.529088|   -6.697069|    0.021809|    0.439559|    0.259635|   -0.813672|
+-----------------------------------------------------------------------+
|        File Writing Summary       |              Filename             |
+-----------------------------------------------------------------------+
|SU2 binary restart                 |restart.dat                        |
|Paraview                           |vol_solution.vtu                   |
|Paraview surface                   |surface.vtu                        |
+-----------------------------------------------------------------------+
+--------------------------------------------------------------------------------------------------------------------+
|  Inner_Iter|    rms[Rho]|   rms[RhoU]|   rms[RhoV]|   rms[RhoE]|          CD|          CL|         CMz|   LinSolRes|
+--------------------------------------------------------------------------------------------------------------------+
|        2325|   -6.977437|   -7.358333|   -7.507878|   -6.689723|    0.021786|    0.438954|    0.259285|   -0.883875|
|        2350|   -6.949177|   -7.331842|   -7.498569|   -6.664917|    0.021764|    0.438360|    0.258949|   -0.848810|
|        2375|   -6.989298|   -7.293269|   -7.540174|   -6.706115|    0.021739|    0.437781|    0.258622|   -0.875270|
|        2400|   -6.990554|   -7.317804|   -7.542666|   -6.704640|    0.021716|    0.437215|    0.258316|   -0.885755|
+-----------------------------------------------------------------------+
|        File Writing Summary       |              Filename             |
+-----------------------------------------------------------------------+
|SU2 binary restart                 |restart.dat                        |
|Paraview                           |vol_solution.vtu                   |
|Paraview surface                   |surface.vtu                        |
+-----------------------------------------------------------------------+
+--------------------------------------------------------------------------------------------------------------------+
|  Inner_Iter|    rms[Rho]|   rms[RhoU]|   rms[RhoV]|   rms[RhoE]|          CD|          CL|         CMz|   LinSolRes|
+--------------------------------------------------------------------------------------------------------------------+
|        2425|   -6.925298|   -7.052917|   -7.485919|   -6.606942|    0.021688|    0.436660|    0.258019|   -0.770742|
|        2450|   -7.006419|   -7.327250|   -7.510787|   -6.716641|    0.021662|    0.436134|    0.257744|   -0.702784|
|        2475|   -7.015732|   -7.308712|   -7.456464|   -6.720922|    0.021634|    0.435614|    0.257472|   -0.846632|
|        2500|   -7.018308|   -7.302329|   -7.497571|   -6.729101|    0.021611|    0.435144|    0.257233|   -0.858649|
+-----------------------------------------------------------------------+
|        File Writing Summary       |              Filename             |
+-----------------------------------------------------------------------+
|SU2 binary restart                 |restart.dat                        |
|Paraview                           |vol_solution.vtu                   |
|Paraview surface                   |surface.vtu                        |
+-----------------------------------------------------------------------+
+--------------------------------------------------------------------------------------------------------------------+
|  Inner_Iter|    rms[Rho]|   rms[RhoU]|   rms[RhoV]|   rms[RhoE]|          CD|          CL|         CMz|   LinSolRes|
+--------------------------------------------------------------------------------------------------------------------+
|        2525|   -7.039653|   -7.334185|   -7.576825|   -6.746725|    0.021590|    0.434717|    0.257011|   -0.824807|
|        2550|   -7.013296|   -7.104645|   -7.578852|   -6.713327|    0.021573|    0.434310|    0.256801|   -0.533060|
|        2575|   -7.036709|   -7.275048|   -7.576949|   -6.743602|    0.021556|    0.433884|    0.256572|   -0.507324|
|        2600|   -7.075283|   -7.343106|   -7.552373|   -6.781713|    0.021541|    0.433446|    0.256337|   -0.649778|
+-----------------------------------------------------------------------+
|        File Writing Summary       |              Filename             |
+-----------------------------------------------------------------------+
|SU2 binary restart                 |restart.dat                        |
|Paraview                           |vol_solution.vtu                   |
|Paraview surface                   |surface.vtu                        |
+-----------------------------------------------------------------------+
+--------------------------------------------------------------------------------------------------------------------+
|  Inner_Iter|    rms[Rho]|   rms[RhoU]|   rms[RhoV]|   rms[RhoE]|          CD|          CL|         CMz|   LinSolRes|
+--------------------------------------------------------------------------------------------------------------------+
|        2625|   -7.083299|   -7.288954|   -7.570009|   -6.786911|    0.021528|    0.433013|    0.256108|   -0.661862|
|        2650|   -7.099766|   -7.362198|   -7.656828|   -6.817575|    0.021516|    0.432612|    0.255894|   -0.760095|
|        2675|   -7.110089|   -7.377280|   -7.694898|   -6.829743|    0.021502|    0.432208|    0.255679|   -0.770758|
|        2700|   -7.138085|   -7.325279|   -7.704926|   -6.856041|    0.021490|    0.431849|    0.255489|   -0.720528|
+-----------------------------------------------------------------------+
|        File Writing Summary       |              Filename             |
+-----------------------------------------------------------------------+
|SU2 binary restart                 |restart.dat                        |
|Paraview                           |vol_solution.vtu                   |
|Paraview surface                   |surface.vtu                        |
+-----------------------------------------------------------------------+
+--------------------------------------------------------------------------------------------------------------------+
|  Inner_Iter|    rms[Rho]|   rms[RhoU]|   rms[RhoV]|   rms[RhoE]|          CD|          CL|         CMz|   LinSolRes|
+--------------------------------------------------------------------------------------------------------------------+
|        2725|   -7.104332|   -7.397795|   -7.608395|   -6.804724|    0.021473|    0.431464|    0.255282|   -0.705754|
|        2750|   -7.076569|   -7.374379|   -7.640205|   -6.778398|    0.021458|    0.431095|    0.255082|   -0.737513|
|        2775|   -7.088793|   -7.452498|   -7.610513|   -6.800177|    0.021442|    0.430726|    0.254879|   -0.729533|
|        2800|   -7.091044|   -7.434249|   -7.639406|   -6.807338|    0.021424|    0.430335|    0.254659|   -0.701838|
+-----------------------------------------------------------------------+
|        File Writing Summary       |              Filename             |
+-----------------------------------------------------------------------+
|SU2 binary restart                 |restart.dat                        |
|Paraview                           |vol_solution.vtu                   |
|Paraview surface                   |surface.vtu                        |
+-----------------------------------------------------------------------+
+--------------------------------------------------------------------------------------------------------------------+
|  Inner_Iter|    rms[Rho]|   rms[RhoU]|   rms[RhoV]|   rms[RhoE]|          CD|          CL|         CMz|   LinSolRes|
+--------------------------------------------------------------------------------------------------------------------+
|        2825|   -7.110699|   -7.403298|   -7.589131|   -6.819262|    0.021408|    0.429933|    0.254433|   -0.650559|
|        2850|   -7.114205|   -7.439022|   -7.675636|   -6.828114|    0.021390|    0.429519|    0.254201|   -0.884328|
|        2875|   -7.109132|   -7.451708|   -7.607551|   -6.817942|    0.021369|    0.429092|    0.253958|   -0.800962|
|        2900|   -7.086809|   -7.379140|   -7.635685|   -6.790076|    0.021350|    0.428675|    0.253723|   -0.787307|
+-----------------------------------------------------------------------+
|        File Writing Summary       |              Filename             |
+-----------------------------------------------------------------------+
|SU2 binary restart                 |restart.dat                        |
|Paraview                           |vol_solution.vtu                   |
|Paraview surface                   |surface.vtu                        |
+-----------------------------------------------------------------------+
+--------------------------------------------------------------------------------------------------------------------+
|  Inner_Iter|    rms[Rho]|   rms[RhoU]|   rms[RhoV]|   rms[RhoE]|          CD|          CL|         CMz|   LinSolRes|
+--------------------------------------------------------------------------------------------------------------------+
|        2925|   -7.054187|   -7.406647|   -7.624645|   -6.764876|    0.021330|    0.428238|    0.253474|   -0.882192|
|        2950|   -7.081666|   -7.427010|   -7.611648|   -6.793250|    0.021302|    0.427641|    0.253136|   -0.656842|
|        2975|   -7.070443|   -7.431998|   -7.632776|   -6.758710|    0.021273|    0.427023|    0.252793|   -0.581904|
|        3000|   -7.065870|   -7.450494|   -7.621399|   -6.776218|    0.021252|    0.426582|    0.252554|   -0.731484|
+-----------------------------------------------------------------------+
|        File Writing Summary       |              Filename             |
+-----------------------------------------------------------------------+
|SU2 binary restart                 |restart.dat                        |
|Paraview                           |vol_solution.vtu                   |
|Paraview surface                   |surface.vtu                        |
+-----------------------------------------------------------------------+
+--------------------------------------------------------------------------------------------------------------------+
|  Inner_Iter|    rms[Rho]|   rms[RhoU]|   rms[RhoV]|   rms[RhoE]|          CD|          CL|         CMz|   LinSolRes|
+--------------------------------------------------------------------------------------------------------------------+
|        3025|   -7.099126|   -7.471339|   -7.617119|   -6.814374|    0.021229|    0.426134|    0.252310|   -0.828413|
|        3050|   -7.103318|   -7.283743|   -7.647070|   -6.816929|    0.021211|    0.425724|    0.252093|   -0.415862|
|        3075|   -7.141419|   -7.431878|   -7.669375|   -6.860400|    0.021192|    0.425330|    0.251885|   -0.756840|
|        3100|   -7.121162|   -7.438947|   -7.646530|   -6.831091|    0.021174|    0.424936|    0.251680|   -0.823216|
+-----------------------------------------------------------------------+
|        File Writing Summary       |              Filename             |
+-----------------------------------------------------------------------+
|SU2 binary restart                 |restart.dat                        |
|Paraview                           |vol_solution.vtu                   |
|Paraview surface                   |surface.vtu                        |
+-----------------------------------------------------------------------+
+--------------------------------------------------------------------------------------------------------------------+
|  Inner_Iter|    rms[Rho]|   rms[RhoU]|   rms[RhoV]|   rms[RhoE]|          CD|          CL|         CMz|   LinSolRes|
+--------------------------------------------------------------------------------------------------------------------+
|        3125|   -7.139797|   -7.471129|   -7.655265|   -6.860589|    0.021158|    0.424580|    0.251495|   -0.836047|
|        3150|   -7.177761|   -7.490482|   -7.694192|   -6.893662|    0.021144|    0.424243|    0.251317|   -0.721794|
|        3175|   -7.183309|   -7.494771|   -7.673080|   -6.898072|    0.021129|    0.423902|    0.251135|   -0.746639|
|        3200|   -7.216834|   -7.475377|   -7.733233|   -6.927237|    0.021116|    0.423575|    0.250962|   -0.753595|
+-----------------------------------------------------------------------+
|        File Writing Summary       |              Filename             |
+-----------------------------------------------------------------------+
|SU2 binary restart                 |restart.dat                        |
|Paraview                           |vol_solution.vtu                   |
|Paraview surface                   |surface.vtu                        |
+-----------------------------------------------------------------------+
+--------------------------------------------------------------------------------------------------------------------+
|  Inner_Iter|    rms[Rho]|   rms[RhoU]|   rms[RhoV]|   rms[RhoE]|          CD|          CL|         CMz|   LinSolRes|
+--------------------------------------------------------------------------------------------------------------------+
|        3225|   -7.241886|   -7.495701|   -7.762728|   -6.952597|    0.021105|    0.423252|    0.250794|   -0.784358|
|        3250|   -7.232679|   -7.523686|   -7.779566|   -6.942987|    0.021094|    0.422956|    0.250641|   -0.711388|
|        3275|   -7.210714|   -7.524742|   -7.764218|   -6.923603|    0.021084|    0.422660|    0.250489|   -0.719201|
|        3300|   -7.229372|   -7.529812|   -7.766824|   -6.946207|    0.021074|    0.422383|    0.250345|   -0.742891|
+-----------------------------------------------------------------------+
|        File Writing Summary       |              Filename             |
+-----------------------------------------------------------------------+
|SU2 binary restart                 |restart.dat                        |
|Paraview                           |vol_solution.vtu                   |
|Paraview surface                   |surface.vtu                        |
+-----------------------------------------------------------------------+
+--------------------------------------------------------------------------------------------------------------------+
|  Inner_Iter|    rms[Rho]|   rms[RhoU]|   rms[RhoV]|   rms[RhoE]|          CD|          CL|         CMz|   LinSolRes|
+--------------------------------------------------------------------------------------------------------------------+
|        3325|   -7.251120|   -7.504583|   -7.760736|   -6.968408|    0.021063|    0.422110|    0.250201|   -0.790738|
|        3350|   -7.259852|   -7.502452|   -7.771209|   -6.970954|    0.021052|    0.421838|    0.250056|   -0.743135|
|        3375|   -7.260218|   -7.541951|   -7.725496|   -6.967312|    0.021041|    0.421562|    0.249907|   -0.783747|
|        3400|   -7.255464|   -7.525198|   -7.754354|   -6.964929|    0.021030|    0.421280|    0.249755|   -0.841213|
+-----------------------------------------------------------------------+
|        File Writing Summary       |              Filename             |
+-----------------------------------------------------------------------+
|SU2 binary restart                 |restart.dat                        |
|Paraview                           |vol_solution.vtu                   |
|Paraview surface                   |surface.vtu                        |
+-----------------------------------------------------------------------+
+--------------------------------------------------------------------------------------------------------------------+
|  Inner_Iter|    rms[Rho]|   rms[RhoU]|   rms[RhoV]|   rms[RhoE]|          CD|          CL|         CMz|   LinSolRes|
+--------------------------------------------------------------------------------------------------------------------+
|        3425|   -7.243010|   -7.549227|   -7.817266|   -6.959290|    0.021020|    0.420998|    0.249602|   -0.847126|
|        3450|   -7.259513|   -7.529774|   -7.812877|   -6.969357|    0.021008|    0.420710|    0.249446|   -0.686330|
|        3475|   -7.254850|   -7.576345|   -7.806830|   -6.970654|    0.020995|    0.420386|    0.249270|   -0.822960|
|        3500|   -7.280980|   -7.537079|   -7.785634|   -6.988022|    0.020981|    0.420075|    0.249100|   -0.661637|
+-----------------------------------------------------------------------+
|        File Writing Summary       |              Filename             |
+-----------------------------------------------------------------------+
|SU2 binary restart                 |restart.dat                        |
|Paraview                           |vol_solution.vtu                   |
|Paraview surface                   |surface.vtu                        |
+-----------------------------------------------------------------------+
+--------------------------------------------------------------------------------------------------------------------+
|  Inner_Iter|    rms[Rho]|   rms[RhoU]|   rms[RhoV]|   rms[RhoE]|          CD|          CL|         CMz|   LinSolRes|
+--------------------------------------------------------------------------------------------------------------------+
|        3525|   -7.206001|   -7.401234|   -7.777166|   -6.894749|    0.020969|    0.419790|    0.248945|   -0.575459|
|        3550|   -7.253056|   -7.580295|   -7.771041|   -6.957496|    0.020954|    0.419455|    0.248760|   -0.672269|
|        3575|   -7.240099|   -7.596989|   -7.694911|   -6.948165|    0.020938|    0.419113|    0.248574|   -0.858583|
|        3600|   -7.219142|   -7.610942|   -7.705599|   -6.931138|    0.020920|    0.418726|    0.248361|   -0.682667|
+-----------------------------------------------------------------------+
|        File Writing Summary       |              Filename             |
+-----------------------------------------------------------------------+
|SU2 binary restart                 |restart.dat                        |
|Paraview                           |vol_solution.vtu                   |
|Paraview surface                   |surface.vtu                        |
+-----------------------------------------------------------------------+
+--------------------------------------------------------------------------------------------------------------------+
|  Inner_Iter|    rms[Rho]|   rms[RhoU]|   rms[RhoV]|   rms[RhoE]|          CD|          CL|         CMz|   LinSolRes|
+--------------------------------------------------------------------------------------------------------------------+
|        3625|   -7.220377|   -7.611005|   -7.744460|   -6.940212|    0.020903|    0.418341|    0.248152|   -0.695892|
|        3650|   -7.213903|   -7.433184|   -7.808710|   -6.922302|    0.020891|    0.418058|    0.248000|   -0.916441|
|        3675|   -7.258449|   -7.583563|   -7.794787|   -6.965994|    0.020879|    0.417787|    0.247856|   -0.740963|
|        3700|   -7.273689|   -7.574643|   -7.797301|   -6.973953|    0.020865|    0.417490|    0.247695|   -0.775472|
+-----------------------------------------------------------------------+
|        File Writing Summary       |              Filename             |
+-----------------------------------------------------------------------+
|SU2 binary restart                 |restart.dat                        |
|Paraview                           |vol_solution.vtu                   |
|Paraview surface                   |surface.vtu                        |
+-----------------------------------------------------------------------+
+--------------------------------------------------------------------------------------------------------------------+
|  Inner_Iter|    rms[Rho]|   rms[RhoU]|   rms[RhoV]|   rms[RhoE]|          CD|          CL|         CMz|   LinSolRes|
+--------------------------------------------------------------------------------------------------------------------+
|        3725|   -7.246401|   -7.615617|   -7.788120|   -6.948440|    0.020853|    0.417208|    0.247541|   -0.707228|
|        3750|   -7.294959|   -7.567664|   -7.855122|   -6.996661|    0.020843|    0.416953|    0.247405|   -0.682494|
|        3775|   -7.295604|   -7.659922|   -7.862865|   -7.000219|    0.020832|    0.416698|    0.247269|   -0.803892|
|        3800|   -7.350074|   -7.683810|   -7.882149|   -7.062175|    0.020820|    0.416429|    0.247125|   -0.877374|
+-----------------------------------------------------------------------+
|        File Writing Summary       |              Filename             |
+-----------------------------------------------------------------------+
|SU2 binary restart                 |restart.dat                        |
|Paraview                           |vol_solution.vtu                   |
|Paraview surface                   |surface.vtu                        |
+-----------------------------------------------------------------------+
+--------------------------------------------------------------------------------------------------------------------+
|  Inner_Iter|    rms[Rho]|   rms[RhoU]|   rms[RhoV]|   rms[RhoE]|          CD|          CL|         CMz|   LinSolRes|
+--------------------------------------------------------------------------------------------------------------------+
|        3825|   -7.341216|   -7.687839|   -7.870431|   -7.052465|    0.020810|    0.416167|    0.246988|   -0.633877|
|        3850|   -7.363357|   -7.687137|   -7.913570|   -7.073294|    0.020800|    0.415932|    0.246865|   -0.765911|
|        3875|   -7.405277|   -7.698344|   -7.947327|   -7.117988|    0.020790|    0.415705|    0.246744|   -0.776347|
|        3900|   -7.389497|   -7.690766|   -7.905014|   -7.104352|    0.020781|    0.415487|    0.246629|   -0.696254|
+-----------------------------------------------------------------------+
|        File Writing Summary       |              Filename             |
+-----------------------------------------------------------------------+
|SU2 binary restart                 |restart.dat                        |
|Paraview                           |vol_solution.vtu                   |
|Paraview surface                   |surface.vtu                        |
+-----------------------------------------------------------------------+
+--------------------------------------------------------------------------------------------------------------------+
|  Inner_Iter|    rms[Rho]|   rms[RhoU]|   rms[RhoV]|   rms[RhoE]|          CD|          CL|         CMz|   LinSolRes|
+--------------------------------------------------------------------------------------------------------------------+
|        3925|   -7.410100|   -7.687084|   -7.907734|   -7.124872|    0.020771|    0.415239|    0.246498|   -0.668450|
|        3950|   -7.404280|   -7.677712|   -7.926125|   -7.113772|    0.020761|    0.414993|    0.246368|   -0.654561|
|        3975|   -7.417945|   -7.692373|   -7.927016|   -7.133113|    0.020752|    0.414760|    0.246247|   -0.677787|
|        4000|   -7.407779|   -7.733083|   -7.961910|   -7.119973|    0.020743|    0.414528|    0.246126|   -0.676180|
+-----------------------------------------------------------------------+
|        File Writing Summary       |              Filename             |
+-----------------------------------------------------------------------+
|SU2 binary restart                 |restart.dat                        |
|Paraview                           |vol_solution.vtu                   |
|Paraview surface                   |surface.vtu                        |
+-----------------------------------------------------------------------+
+--------------------------------------------------------------------------------------------------------------------+
|  Inner_Iter|    rms[Rho]|   rms[RhoU]|   rms[RhoV]|   rms[RhoE]|          CD|          CL|         CMz|   LinSolRes|
+--------------------------------------------------------------------------------------------------------------------+
|        4025|   -7.406249|   -7.724840|   -7.967485|   -7.115963|    0.020735|    0.414305|    0.246010|   -0.686515|
|        4050|   -7.432129|   -7.669494|   -7.968976|   -7.134043|    0.020728|    0.414127|    0.245919|   -0.556771|
|        4075|   -7.446829|   -7.677101|   -7.995655|   -7.144443|    0.020721|    0.413947|    0.245826|   -0.555613|
|        4100|   -7.463278|   -7.701473|   -8.005535|   -7.171622|    0.020716|    0.413783|    0.245744|   -0.687161|
+-----------------------------------------------------------------------+
|        File Writing Summary       |              Filename             |
+-----------------------------------------------------------------------+
|SU2 binary restart                 |restart.dat                        |
|Paraview                           |vol_solution.vtu                   |
|Paraview surface                   |surface.vtu                        |
+-----------------------------------------------------------------------+
+--------------------------------------------------------------------------------------------------------------------+
|  Inner_Iter|    rms[Rho]|   rms[RhoU]|   rms[RhoV]|   rms[RhoE]|          CD|          CL|         CMz|   LinSolRes|
+--------------------------------------------------------------------------------------------------------------------+
|        4125|   -7.473200|   -7.716927|   -8.002890|   -7.180488|    0.020708|    0.413593|    0.245647|   -0.644163|
|        4150|   -7.490063|   -7.744157|   -8.053166|   -7.202442|    0.020702|    0.413419|    0.245557|   -0.697725|
|        4175|   -7.514097|   -7.739289|   -8.075509|   -7.229492|    0.020696|    0.413260|    0.245475|   -0.656228|
|        4200|   -7.523725|   -7.704972|   -8.096427|   -7.233960|    0.020691|    0.413108|    0.245395|   -0.669754|
+-----------------------------------------------------------------------+
|        File Writing Summary       |              Filename             |
+-----------------------------------------------------------------------+
|SU2 binary restart                 |restart.dat                        |
|Paraview                           |vol_solution.vtu                   |
|Paraview surface                   |surface.vtu                        |
+-----------------------------------------------------------------------+
+--------------------------------------------------------------------------------------------------------------------+
|  Inner_Iter|    rms[Rho]|   rms[RhoU]|   rms[RhoV]|   rms[RhoE]|          CD|          CL|         CMz|   LinSolRes|
+--------------------------------------------------------------------------------------------------------------------+
|        4225|   -7.526175|   -7.781853|   -8.061239|   -7.238617|    0.020685|    0.412955|    0.245314|   -0.773179|
|        4250|   -7.503042|   -7.762729|   -8.039260|   -7.217110|    0.020679|    0.412791|    0.245225|   -0.798857|
|        4275|   -7.506339|   -7.777536|   -8.029287|   -7.225276|    0.020673|    0.412612|    0.245128|   -0.860334|
|        4300|   -7.492793|   -7.786604|   -7.957673|   -7.211714|    0.020667|    0.412448|    0.245039|   -0.811067|
+-----------------------------------------------------------------------+
|        File Writing Summary       |              Filename             |
+-----------------------------------------------------------------------+
|SU2 binary restart                 |restart.dat                        |
|Paraview                           |vol_solution.vtu                   |
|Paraview surface                   |surface.vtu                        |
+-----------------------------------------------------------------------+
+--------------------------------------------------------------------------------------------------------------------+
|  Inner_Iter|    rms[Rho]|   rms[RhoU]|   rms[RhoV]|   rms[RhoE]|          CD|          CL|         CMz|   LinSolRes|
+--------------------------------------------------------------------------------------------------------------------+
|        4325|   -7.519911|   -7.791136|   -8.010851|   -7.235372|    0.020660|    0.412282|    0.244950|   -0.813791|
|        4350|   -7.509390|   -7.779447|   -7.996010|   -7.225202|    0.020653|    0.412099|    0.244851|   -0.833416|
|        4375|   -7.524062|   -7.793732|   -8.012320|   -7.239137|    0.020646|    0.411925|    0.244759|   -0.848416|
|        4400|   -7.539421|   -7.810295|   -8.029084|   -7.253804|    0.020639|    0.411762|    0.244673|   -0.871370|
+-----------------------------------------------------------------------+
|        File Writing Summary       |              Filename             |
+-----------------------------------------------------------------------+
|SU2 binary restart                 |restart.dat                        |
|Paraview                           |vol_solution.vtu                   |
|Paraview surface                   |surface.vtu                        |
+-----------------------------------------------------------------------+
+--------------------------------------------------------------------------------------------------------------------+
|  Inner_Iter|    rms[Rho]|   rms[RhoU]|   rms[RhoV]|   rms[RhoE]|          CD|          CL|         CMz|   LinSolRes|
+--------------------------------------------------------------------------------------------------------------------+
|        4425|   -7.503945|   -7.769857|   -8.010694|   -7.215701|    0.020632|    0.411595|    0.244584|   -0.617769|
|        4450|   -7.493630|   -7.820887|   -7.978628|   -7.198931|    0.020625|    0.411424|    0.244492|   -0.781223|
|        4475|   -7.487836|   -7.841929|   -7.992871|   -7.200819|    0.020618|    0.411247|    0.244396|   -0.801164|
|        4500|   -7.479448|   -7.820941|   -8.019268|   -7.186720|    0.020610|    0.411072|    0.244300|   -0.679471|
+-----------------------------------------------------------------------+
|        File Writing Summary       |              Filename             |
+-----------------------------------------------------------------------+
|SU2 binary restart                 |restart.dat                        |
|Paraview                           |vol_solution.vtu                   |
|Paraview surface                   |surface.vtu                        |
+-----------------------------------------------------------------------+
+--------------------------------------------------------------------------------------------------------------------+
|  Inner_Iter|    rms[Rho]|   rms[RhoU]|   rms[RhoV]|   rms[RhoE]|          CD|          CL|         CMz|   LinSolRes|
+--------------------------------------------------------------------------------------------------------------------+
|        4525|   -7.485224|   -7.844407|   -8.028619|   -7.192562|    0.020603|    0.410893|    0.244202|   -0.748304|
|        4550|   -7.475583|   -7.839066|   -7.980723|   -7.177082|    0.020595|    0.410718|    0.244106|   -0.676410|
|        4575|   -7.473447|   -7.793132|   -7.972191|   -7.177684|    0.020587|    0.410524|    0.244001|   -0.779477|
|        4600|   -7.485765|   -7.661968|   -8.013873|   -7.186838|    0.020579|    0.410351|    0.243906|   -0.797529|
+-----------------------------------------------------------------------+
|        File Writing Summary       |              Filename             |
+-----------------------------------------------------------------------+
|SU2 binary restart                 |restart.dat                        |
|Paraview                           |vol_solution.vtu                   |
|Paraview surface                   |surface.vtu                        |
+-----------------------------------------------------------------------+
+--------------------------------------------------------------------------------------------------------------------+
|  Inner_Iter|    rms[Rho]|   rms[RhoU]|   rms[RhoV]|   rms[RhoE]|          CD|          CL|         CMz|   LinSolRes|
+--------------------------------------------------------------------------------------------------------------------+
|        4625|   -7.524583|   -7.857998|   -8.041836|   -7.234977|    0.020572|    0.410180|    0.243814|   -0.832454|
|        4650|   -7.477178|   -7.765835|   -7.991716|   -7.192175|    0.020564|    0.410009|    0.243721|   -0.763170|
|        4675|   -7.518050|   -7.839963|   -7.990752|   -7.233959|    0.020556|    0.409835|    0.243627|   -0.633504|
|        4700|   -7.517112|   -7.885099|   -8.059056|   -7.233350|    0.020549|    0.409670|    0.243537|   -0.795471|
+-----------------------------------------------------------------------+
|        File Writing Summary       |              Filename             |
+-----------------------------------------------------------------------+
|SU2 binary restart                 |restart.dat                        |
|Paraview                           |vol_solution.vtu                   |
|Paraview surface                   |surface.vtu                        |
+-----------------------------------------------------------------------+
+--------------------------------------------------------------------------------------------------------------------+
|  Inner_Iter|    rms[Rho]|   rms[RhoU]|   rms[RhoV]|   rms[RhoE]|          CD|          CL|         CMz|   LinSolRes|
+--------------------------------------------------------------------------------------------------------------------+
|        4725|   -7.530179|   -7.916021|   -8.064530|   -7.247667|    0.020542|    0.409514|    0.243454|   -0.921779|
|        4750|   -7.552750|   -7.905262|   -8.095889|   -7.269434|    0.020535|    0.409352|    0.243366|   -0.886090|
|        4775|   -7.571784|   -7.913420|   -8.106039|   -7.286572|    0.020528|    0.409198|    0.243284|   -0.888326|
|        4800|   -7.191149|   -7.075802|   -7.948765|   -6.825974|    0.020521|    0.409054|    0.243207|   -0.947295|
+-----------------------------------------------------------------------+
|        File Writing Summary       |              Filename             |
+-----------------------------------------------------------------------+
|SU2 binary restart                 |restart.dat                        |
|Paraview                           |vol_solution.vtu                   |
|Paraview surface                   |surface.vtu                        |
+-----------------------------------------------------------------------+
+--------------------------------------------------------------------------------------------------------------------+
|  Inner_Iter|    rms[Rho]|   rms[RhoU]|   rms[RhoV]|   rms[RhoE]|          CD|          CL|         CMz|   LinSolRes|
+--------------------------------------------------------------------------------------------------------------------+
|        4825|   -7.603519|   -7.923125|   -8.139814|   -7.320539|    0.020515|    0.408912|    0.243131|   -0.892039|
|        4850|   -7.610911|   -7.876533|   -8.126977|   -7.322958|    0.020509|    0.408779|    0.243061|   -0.629696|
|        4875|   -7.586913|   -7.895604|   -8.105003|   -7.290282|    0.020502|    0.408620|    0.242976|   -0.596481|
|        4900|   -7.635258|   -7.677270|   -8.153489|   -7.357978|    0.020495|    0.408464|    0.242894|   -0.697478|
+-----------------------------------------------------------------------+
|        File Writing Summary       |              Filename             |
+-----------------------------------------------------------------------+
|SU2 binary restart                 |restart.dat                        |
|Paraview                           |vol_solution.vtu                   |
|Paraview surface                   |surface.vtu                        |
+-----------------------------------------------------------------------+
+--------------------------------------------------------------------------------------------------------------------+
|  Inner_Iter|    rms[Rho]|   rms[RhoU]|   rms[RhoV]|   rms[RhoE]|          CD|          CL|         CMz|   LinSolRes|
+--------------------------------------------------------------------------------------------------------------------+
|        4925|   -7.643764|   -7.946455|   -8.210530|   -7.361898|    0.020488|    0.408307|    0.242812|   -0.811935|
|        4950|   -7.652478|   -7.951376|   -8.198309|   -7.366399|    0.020482|    0.408157|    0.242736|   -0.595250|
|        4975|   -7.661017|   -8.013512|   -8.221476|   -7.377707|    0.020477|    0.408038|    0.242675|   -0.802924|
[...]
|SU2 binary restart                 |restart.dat                        |
|Paraview                           |vol_solution.vtu                   |
|Paraview surface                   |surface.vtu                        |
+-----------------------------------------------------------------------+
+--------------------------------------------------------------------------------------------------------------------+
|  Inner_Iter|    rms[Rho]|   rms[RhoU]|   rms[RhoV]|   rms[RhoE]|          CD|          CL|         CMz|   LinSolRes|
+--------------------------------------------------------------------------------------------------------------------+
|        8725|   -8.653738|   -8.965091|   -9.183118|   -8.368883|    0.020229|    0.401529|    0.239261|   -0.781187|
|        8750|   -8.660830|   -8.962537|   -9.190154|   -8.374755|    0.020228|    0.401517|    0.239255|   -0.737170|
|        8775|   -8.669702|   -8.952456|   -9.197238|   -8.382193|    0.020228|    0.401504|    0.239248|   -0.685414|
|        8800|   -8.677645|   -8.940384|   -9.205751|   -8.388470|    0.020227|    0.401492|    0.239242|   -0.641359|
+-----------------------------------------------------------------------+
|        File Writing Summary       |              Filename             |
+-----------------------------------------------------------------------+
|SU2 binary restart                 |restart.dat                        |
|Paraview                           |vol_solution.vtu                   |
|Paraview surface                   |surface.vtu                        |
+-----------------------------------------------------------------------+
+--------------------------------------------------------------------------------------------------------------------+
|  Inner_Iter|    rms[Rho]|   rms[RhoU]|   rms[RhoV]|   rms[RhoE]|          CD|          CL|         CMz|   LinSolRes|
+--------------------------------------------------------------------------------------------------------------------+
|        8825|   -8.682681|   -8.941205|   -9.211612|   -8.391937|    0.020227|    0.401480|    0.239235|   -0.625922|
|        8850|   -8.685814|   -8.959710|   -9.215358|   -8.393945|    0.020226|    0.401469|    0.239229|   -0.641632|
|        8875|   -8.689318|   -8.985008|   -9.222432|   -8.396542|    0.020226|    0.401457|    0.239223|   -0.666505|
|        8900|   -8.693505|   -9.006704|   -9.227718|   -8.399897|    0.020225|    0.401446|    0.239217|   -0.684297|
+-----------------------------------------------------------------------+
|        File Writing Summary       |              Filename             |
+-----------------------------------------------------------------------+
|SU2 binary restart                 |restart.dat                        |
|Paraview                           |vol_solution.vtu                   |
|Paraview surface                   |surface.vtu                        |
+-----------------------------------------------------------------------+
+--------------------------------------------------------------------------------------------------------------------+
|  Inner_Iter|    rms[Rho]|   rms[RhoU]|   rms[RhoV]|   rms[RhoE]|          CD|          CL|         CMz|   LinSolRes|
+--------------------------------------------------------------------------------------------------------------------+
|        8925|   -8.698802|   -9.022939|   -9.233054|   -8.404479|    0.020225|    0.401435|    0.239211|   -0.693210|
|        8950|   -8.705112|   -9.035902|   -9.240420|   -8.410154|    0.020224|    0.401424|    0.239206|   -0.696775|
|        8975|   -8.711443|   -9.046719|   -9.246806|   -8.415953|    0.020224|    0.401413|    0.239200|   -0.697711|
|        9000|   -8.716962|   -9.056072|   -9.252035|   -8.421084|    0.020224|    0.401403|    0.239195|   -0.697876|
+-----------------------------------------------------------------------+
|        File Writing Summary       |              Filename             |
+-----------------------------------------------------------------------+
|SU2 binary restart                 |restart.dat                        |
|Paraview                           |vol_solution.vtu                   |
|Paraview surface                   |surface.vtu                        |
+-----------------------------------------------------------------------+
+--------------------------------------------------------------------------------------------------------------------+
|  Inner_Iter|    rms[Rho]|   rms[RhoU]|   rms[RhoV]|   rms[RhoE]|          CD|          CL|         CMz|   LinSolRes|
+--------------------------------------------------------------------------------------------------------------------+
|        9025|   -8.720809|   -9.064471|   -9.256343|   -8.424691|    0.020223|    0.401393|    0.239189|   -0.698990|
|        9050|   -8.714760|   -9.067768|   -9.250772|   -8.418328|    0.020223|    0.401382|    0.239183|   -0.607399|
|        9075|   -8.713481|   -9.078179|   -9.250482|   -8.417381|    0.020222|    0.401372|    0.239178|   -0.711952|
|        9100|   -8.715160|   -9.086949|   -9.253094|   -8.418486|    0.020222|    0.401363|    0.239174|   -0.716730|
+-----------------------------------------------------------------------+
|        File Writing Summary       |              Filename             |
+-----------------------------------------------------------------------+
|SU2 binary restart                 |restart.dat                        |
|Paraview                           |vol_solution.vtu                   |
|Paraview surface                   |surface.vtu                        |
+-----------------------------------------------------------------------+
+--------------------------------------------------------------------------------------------------------------------+
|  Inner_Iter|    rms[Rho]|   rms[RhoU]|   rms[RhoV]|   rms[RhoE]|          CD|          CL|         CMz|   LinSolRes|
+--------------------------------------------------------------------------------------------------------------------+
|        9125|   -8.754029|   -9.103962|   -9.286460|   -8.455900|    0.020222|    0.401354|    0.239169|   -0.698999|
|        9150|   -8.791484|   -9.120270|   -9.319861|   -8.492499|    0.020221|    0.401345|    0.239164|   -0.679557|
|        9175|   -8.816233|   -9.133677|   -9.342136|   -8.516973|    0.020221|    0.401336|    0.239160|   -0.668694|
|        9200|   -8.835458|   -9.145509|   -9.359937|   -8.536176|    0.020220|    0.401328|    0.239155|   -0.662106|
+-----------------------------------------------------------------------+
|        File Writing Summary       |              Filename             |
+-----------------------------------------------------------------------+
|SU2 binary restart                 |restart.dat                        |
|Paraview                           |vol_solution.vtu                   |
|Paraview surface                   |surface.vtu                        |
+-----------------------------------------------------------------------+
+--------------------------------------------------------------------------------------------------------------------+
|  Inner_Iter|    rms[Rho]|   rms[RhoU]|   rms[RhoV]|   rms[RhoE]|          CD|          CL|         CMz|   LinSolRes|
+--------------------------------------------------------------------------------------------------------------------+
|        9225|   -8.851618|   -9.156930|   -9.376165|   -8.552375|    0.020220|    0.401320|    0.239151|   -0.657942|
|        9250|   -8.865788|   -9.167901|   -9.389075|   -8.566634|    0.020220|    0.401312|    0.239147|   -0.654919|
|        9275|   -8.879171|   -9.178531|   -9.401364|   -8.580160|    0.020220|    0.401304|    0.239143|   -0.652459|
|        9300|   -8.891849|   -9.189136|   -9.413989|   -8.592987|    0.020219|    0.401297|    0.239139|   -0.650801|
+-----------------------------------------------------------------------+
|        File Writing Summary       |              Filename             |
+-----------------------------------------------------------------------+
|SU2 binary restart                 |restart.dat                        |
|Paraview                           |vol_solution.vtu                   |
|Paraview surface                   |surface.vtu                        |
+-----------------------------------------------------------------------+
+--------------------------------------------------------------------------------------------------------------------+
|  Inner_Iter|    rms[Rho]|   rms[RhoU]|   rms[RhoV]|   rms[RhoE]|          CD|          CL|         CMz|   LinSolRes|
+--------------------------------------------------------------------------------------------------------------------+
|        9325|   -8.903720|   -9.199641|   -9.425025|   -8.605024|    0.020219|    0.401290|    0.239135|   -0.649537|
|        9350|   -8.914964|   -9.209967|   -9.435708|   -8.616450|    0.020219|    0.401283|    0.239132|   -0.648561|
|        9375|   -8.925759|   -9.220147|   -9.446202|   -8.627432|    0.020218|    0.401276|    0.239128|   -0.647936|
|        9400|   -8.936013|   -9.230132|   -9.455733|   -8.637878|    0.020218|    0.401269|    0.239125|   -0.647499|
+-----------------------------------------------------------------------+
|        File Writing Summary       |              Filename             |
+-----------------------------------------------------------------------+
|SU2 binary restart                 |restart.dat                        |
|Paraview                           |vol_solution.vtu                   |
|Paraview surface                   |surface.vtu                        |
+-----------------------------------------------------------------------+
+--------------------------------------------------------------------------------------------------------------------+
|  Inner_Iter|    rms[Rho]|   rms[RhoU]|   rms[RhoV]|   rms[RhoE]|          CD|          CL|         CMz|   LinSolRes|
+--------------------------------------------------------------------------------------------------------------------+
|        9425|   -8.945810|   -9.239926|   -9.465033|   -8.647877|    0.020218|    0.401263|    0.239121|   -0.647244|
|        9450|   -8.955236|   -9.249601|   -9.474056|   -8.657506|    0.020218|    0.401256|    0.239118|   -0.647216|
|        9475|   -8.964294|   -9.259044|   -9.482480|   -8.666768|    0.020217|    0.401250|    0.239115|   -0.647283|
|        9500|   -8.973046|   -9.268361|   -9.490910|   -8.675731|    0.020217|    0.401244|    0.239111|   -0.647505|
+-----------------------------------------------------------------------+
|        File Writing Summary       |              Filename             |
+-----------------------------------------------------------------------+
|SU2 binary restart                 |restart.dat                        |
|Paraview                           |vol_solution.vtu                   |
|Paraview surface                   |surface.vtu                        |
+-----------------------------------------------------------------------+
+--------------------------------------------------------------------------------------------------------------------+
|  Inner_Iter|    rms[Rho]|   rms[RhoU]|   rms[RhoV]|   rms[RhoE]|          CD|          CL|         CMz|   LinSolRes|
+--------------------------------------------------------------------------------------------------------------------+
|        9525|   -8.981532|   -9.277564|   -9.498977|   -8.684425|    0.020217|    0.401238|    0.239108|   -0.647841|
|        9550|   -8.989829|   -9.286636|   -9.506873|   -8.692938|    0.020217|    0.401232|    0.239105|   -0.648247|
|        9575|   -8.997966|   -9.295669|   -9.514736|   -8.701291|    0.020216|    0.401226|    0.239102|   -0.648744|
|        9600|   -9.005980|   -9.304642|   -9.522391|   -8.709524|    0.020216|    0.401220|    0.239099|   -0.649287|
+-----------------------------------------------------------------------+
|        File Writing Summary       |              Filename             |
+-----------------------------------------------------------------------+
|SU2 binary restart                 |restart.dat                        |
|Paraview                           |vol_solution.vtu                   |
|Paraview surface                   |surface.vtu                        |
+-----------------------------------------------------------------------+
+--------------------------------------------------------------------------------------------------------------------+
|  Inner_Iter|    rms[Rho]|   rms[RhoU]|   rms[RhoV]|   rms[RhoE]|          CD|          CL|         CMz|   LinSolRes|
+--------------------------------------------------------------------------------------------------------------------+
|        9625|   -9.013946|   -9.313580|   -9.530049|   -8.717713|    0.020216|    0.401215|    0.239096|   -0.649874|
|        9650|   -9.021870|   -9.322499|   -9.537691|   -8.725862|    0.020216|    0.401209|    0.239093|   -0.650501|
|        9675|   -9.029794|   -9.331392|   -9.545294|   -8.734012|    0.020216|    0.401204|    0.239090|   -0.651149|
|        9700|   -9.037773|   -9.340274|   -9.553006|   -8.742220|    0.020215|    0.401198|    0.239087|   -0.651825|
+-----------------------------------------------------------------------+
|        File Writing Summary       |              Filename             |
+-----------------------------------------------------------------------+
|SU2 binary restart                 |restart.dat                        |
|Paraview                           |vol_solution.vtu                   |
|Paraview surface                   |surface.vtu                        |
+-----------------------------------------------------------------------+
+--------------------------------------------------------------------------------------------------------------------+
|  Inner_Iter|    rms[Rho]|   rms[RhoU]|   rms[RhoV]|   rms[RhoE]|          CD|          CL|         CMz|   LinSolRes|
+--------------------------------------------------------------------------------------------------------------------+
|        9725|   -9.045796|   -9.349154|   -9.560766|   -8.750472|    0.020215|    0.401193|    0.239085|   -0.652518|
|        9750|   -9.053907|   -9.358044|   -9.568626|   -8.758817|    0.020215|    0.401188|    0.239082|   -0.653220|
|        9775|   -9.062123|   -9.366967|   -9.576648|   -8.767268|    0.020215|    0.401183|    0.239079|   -0.653934|
|        9800|   -9.070436|   -9.375927|   -9.584771|   -8.775818|    0.020214|    0.401178|    0.239077|   -0.654646|
+-----------------------------------------------------------------------+
|        File Writing Summary       |              Filename             |
+-----------------------------------------------------------------------+
|SU2 binary restart                 |restart.dat                        |
|Paraview                           |vol_solution.vtu                   |
|Paraview surface                   |surface.vtu                        |
+-----------------------------------------------------------------------+
+--------------------------------------------------------------------------------------------------------------------+
|  Inner_Iter|    rms[Rho]|   rms[RhoU]|   rms[RhoV]|   rms[RhoE]|          CD|          CL|         CMz|   LinSolRes|
+--------------------------------------------------------------------------------------------------------------------+
|        9825|   -9.078877|   -9.384929|   -9.593062|   -8.784500|    0.020214|    0.401173|    0.239074|   -0.655361|
|        9850|   -9.087423|   -9.393962|   -9.601482|   -8.793285|    0.020214|    0.401169|    0.239072|   -0.656081|
|        9875|   -9.095985|   -9.403055|   -9.609938|   -8.802087|    0.020214|    0.401164|    0.239069|   -0.656786|
|        9900|   -9.104674|   -9.412166|   -9.618597|   -8.811018|    0.020214|    0.401159|    0.239067|   -0.657505|
+-----------------------------------------------------------------------+
|        File Writing Summary       |              Filename             |
+-----------------------------------------------------------------------+
|SU2 binary restart                 |restart.dat                        |
|Paraview                           |vol_solution.vtu                   |
|Paraview surface                   |surface.vtu                        |
+-----------------------------------------------------------------------+
+--------------------------------------------------------------------------------------------------------------------+
|  Inner_Iter|    rms[Rho]|   rms[RhoU]|   rms[RhoV]|   rms[RhoE]|          CD|          CL|         CMz|   LinSolRes|
+--------------------------------------------------------------------------------------------------------------------+
|        9925|   -9.113592|   -9.421394|   -9.627508|   -8.820179|    0.020214|    0.401155|    0.239065|   -0.658241|
|        9950|   -9.122817|   -9.430781|   -9.636666|   -8.829649|    0.020213|    0.401151|    0.239063|   -0.658961|
|        9975|   -9.132228|   -9.440357|   -9.646045|   -8.839312|    0.020213|    0.401147|    0.239060|   -0.659702|
|       10000|   -9.141802|   -9.449941|   -9.655622|   -8.849132|    0.020213|    0.401142|    0.239058|   -0.660487|
+-----------------------------------------------------------------------+
|        File Writing Summary       |              Filename             |
+-----------------------------------------------------------------------+
|SU2 binary restart                 |restart.dat                        |
|Paraview                           |vol_solution.vtu                   |
|Paraview surface                   |surface.vtu                        |
+-----------------------------------------------------------------------+
+--------------------------------------------------------------------------------------------------------------------+
|  Inner_Iter|    rms[Rho]|   rms[RhoU]|   rms[RhoV]|   rms[RhoE]|          CD|          CL|         CMz|   LinSolRes|
+--------------------------------------------------------------------------------------------------------------------+
|       10012|   -9.146446|   -9.454610|   -9.660215|   -8.853897|    0.020213|    0.401140|    0.239057|   -0.660831|

----------------------------- Solver Exit -------------------------------
All convergence criteria satisfied.
+-----------------------------------------------------------------------+
|      Convergence Field     |     Value    |   Criterion  |  Converged |
+-----------------------------------------------------------------------+
|                  Cauchy[CL]|   4.99758e-07|       < 5e-07|         Yes|
+-----------------------------------------------------------------------+
-------------------------------------------------------------------------
+-----------------------------------------------------------------------+
|        File Writing Summary       |              Filename             |
+-----------------------------------------------------------------------+
|SU2 binary restart                 |restart.dat                        |
|Paraview                           |vol_solution.vtu                   |
|Paraview surface                   |surface.vtu                        |
+-----------------------------------------------------------------------+

------------------------- Solver Postprocessing -------------------------
Deleted CNumerics container.
Deleted CIntegration container.
Deleted CSolver container.
Deleted CIteration container.
Deleted CInterface container.
Deleted CGeometry container.
Deleted CFreeFormDefBox class.
Deleted CSurfaceMovement class.
Deleted CVolumetricMovement class.
Deleted CConfig container.
Deleted nInst container.
Deleted COutput class.
-------------------------------------------------------------------------

------------------------- Exit Success (SU2_CFD) ------------------------

